REMARK  1 active torsions:
REMARK  status: ('A' for Active; 'I' for Inactive)
REMARK    1  A    between atoms: N_1  and  C_2 
ROOT
ATOM      1  C   UNL d   1       1.565   2.189  -0.032  0.00  0.00     0.120 A 
ATOM      2  C   UNL d   1       2.129   0.901   0.052  0.00  0.00     0.050 A 
ATOM      3  C   UNL d   1       1.270  -0.212   0.130  0.00  0.00     0.005 A 
ATOM      4  C   UNL d   1      -0.125  -0.029   0.123  0.00  0.00     0.019 A 
ATOM      5  C   UNL d   1      -0.638   1.279   0.028  0.00  0.00     0.119 A 
ATOM      6  N   UNL d   1       0.214   2.334  -0.045  0.00  0.00    -0.244 NA
ENDROOT
BRANCH   1   7
ATOM      7  N   UNL d   1       2.341   3.282  -0.109  0.00  0.00    -0.384 N 
ATOM      8  H   UNL d   1       3.321   3.191  -0.101  0.00  0.00     0.157 HD
ATOM      9  H   UNL d   1       1.929   4.174  -0.174  0.00  0.00     0.157 HD
ENDBRANCH   1   7
TORSDOF 1
