REMARK  0 active torsions:
REMARK  status: ('A' for Active; 'I' for Inactive)
ROOT
ATOM      1  O   UNL d   1      -1.612  -0.620  -1.902  0.00  0.00    -0.247 OA
ATOM      2  C   UNL d   1      -0.694  -0.051  -1.273  0.00  0.00     0.316 A 
ATOM      3  N   UNL d   1      -0.827   1.084  -0.583  0.00  0.00    -0.342 N 
ATOM      4  C   UNL d   1       0.388   1.483   0.021  0.00  0.00     0.144 A 
ATOM      5  C   UNL d   1       1.373   0.369  -0.410  0.00  0.00     0.144 A 
ATOM      6  N   UNL d   1       0.564  -0.488  -1.191  0.00  0.00    -0.342 N 
ATOM      7  H   UNL d   1      -1.671   1.584  -0.504  0.00  0.00     0.164 HD
ATOM      8  H   UNL d   1       0.890  -1.311  -1.623  0.00  0.00     0.164 HD
ENDROOT
TORSDOF 0
