REMARK  0 active torsions:
REMARK  status: ('A' for Active; 'I' for Inactive)
REMARK       I    between atoms: C_2  and  N_4 
REMARK       I    between atoms: N_4  and  C_5 
REMARK       I    between atoms: C_5  and  N_7 
ROOT
ATOM      1  C   UNL d   1      -3.648  -1.377  -1.758  0.00  0.00     0.117 C 
ATOM      2  C   UNL d   1      -2.907  -0.883  -0.585  0.00  0.00     0.221 C 
ATOM      3  O   UNL d   1      -3.503  -0.776   0.513  0.00  0.00    -0.274 OA
ATOM      4  N   UNL d   1      -1.593  -0.554  -0.741  0.00  0.00    -0.280 N 
ATOM      5  C   UNL d   1      -0.744  -0.083   0.210  0.00  0.00     0.320 C 
ATOM      6  O   UNL d   1      -1.070   0.093   1.407  0.00  0.00    -0.247 OA
ATOM      7  N   UNL d   1       0.517   0.206  -0.145  0.00  0.00    -0.352 N 
ATOM      8  H   UNL d   1      -1.218  -0.670  -1.644  0.00  0.00     0.173 HD
ATOM      9  H   UNL d   1       0.807   0.079  -1.078  0.00  0.00     0.160 HD
ATOM     10  H   UNL d   1       1.153   0.544   0.526  0.00  0.00     0.160 HD
ENDROOT
TORSDOF 0
