REMARK  2 active torsions:
REMARK  status: ('A' for Active; 'I' for Inactive)
REMARK    1  A    between atoms: C_2  and  O_3 
REMARK    2  A    between atoms: C_2  and  C_4 
ROOT
ATOM      1  C   UNL d   1      -0.613  -0.067  -3.163  0.00  0.00     0.050 C 
ATOM      2  C   UNL d   1       0.306   0.126  -1.935  0.00  0.00     0.214 C 
ENDROOT
BRANCH   2   3
ATOM      3  O   UNL d   1       1.048  -1.069  -1.696  0.00  0.00    -0.385 OA
ATOM      4  H   UNL d   1       0.436  -1.795  -1.499  0.00  0.00     0.210 HD
ENDBRANCH   2   3
BRANCH   2   5
ATOM      5  C   UNL d   1      -0.455   0.479  -0.721  0.00  0.00     0.202 C 
ATOM      6  O   UNL d   1      -1.298  -0.312  -0.240  0.00  0.00    -0.646 OA
ATOM      7  O   UNL d   1      -0.257   1.664  -0.099  0.00  0.00    -0.646 OA
ENDBRANCH   2   5
TORSDOF 2
