REMARK  0 active torsions:
REMARK  status: ('A' for Active; 'I' for Inactive)
ROOT
ATOM      1  C   UNL d   1      -0.445   1.312   0.000  0.00  0.00     0.039 A 
ATOM      2  C   UNL d   1      -0.004  -0.002  -0.000  0.00  0.00     0.140 A 
ATOM      3  N   UNL d   1       1.341  -0.003  -0.000  0.00  0.00    -0.188 NA
ATOM      4  N   UNL d   1       1.743   1.230   0.000  0.00  0.00    -0.290 N 
ATOM      5  C   UNL d   1       0.705   2.081   0.000  0.00  0.00     0.110 A 
ATOM      6  H   UNL d   1       2.688   1.507   0.000  0.00  0.00     0.188 HD
ENDROOT
TORSDOF 0
