REMARK  0 active torsions:
REMARK  status: ('A' for Active; 'I' for Inactive)
ROOT
ATOM      1  N   UNL d   1       1.151   0.003   0.000  0.00  0.00    -0.190 NA
ATOM      2  C   UNL d   1       0.002   0.003   0.000  0.00  0.00     0.122 C 
ATOM      3  C   UNL d   1      -1.294  -0.003  -0.000  0.00  0.00     0.166 A 
ATOM      4  C   UNL d   1      -2.107  -1.126  -0.000  0.00  0.00     0.072 A 
ATOM      5  C   UNL d   1      -3.403  -0.638  -0.000  0.00  0.00     0.173 A 
ATOM      6  O   UNL d   1      -3.341   0.713  -0.000  0.00  0.00    -0.225 OA
ATOM      7  N   UNL d   1      -2.085   1.084  -0.000  0.00  0.00    -0.118 NA
ENDROOT
TORSDOF 0
