REMARK  2 active torsions:
REMARK  status: ('A' for Active; 'I' for Inactive)
REMARK    1  A    between atoms: N_1  and  C_2 
REMARK    2  A    between atoms: C_2  and  C_3 
ROOT
ATOM      1  C   UNL d   1      -0.247   1.108   1.147  0.00  0.00     0.084 A 
ATOM      2  C   UNL d   1       0.152   0.785   2.438  0.00  0.00     0.172 A 
ATOM      3  O   UNL d   1      -0.790   1.219   3.298  0.00  0.00    -0.314 OA
ATOM      4  C   UNL d   1      -1.742   1.795   2.528  0.00  0.00     0.258 A 
ATOM      5  N   UNL d   1      -1.430   1.736   1.223  0.00  0.00    -0.238 NA
ENDROOT
BRANCH   1   6
ATOM      6  C   UNL d   1       0.485   0.809  -0.090  0.00  0.00     0.290 C 
BRANCH   6   7
ATOM      7  N   UNL d   1       0.086  -0.515  -0.578  0.00  0.00    -0.074 N 
ATOM      8  H   UNL d   1       0.592  -0.727  -1.438  0.00  0.00     0.274 HD
ATOM      9  H   UNL d   1      -0.917  -0.521  -0.764  0.00  0.00     0.274 HD
ATOM     10  H   UNL d   1       0.306  -1.218   0.128  0.00  0.00     0.274 HD
ENDBRANCH   6   7
ENDBRANCH   1   6
TORSDOF 2
