REMARK  0 active torsions:
REMARK  status: ('A' for Active; 'I' for Inactive)
ROOT
ATOM      1  O   UNL d   1      -0.590  -0.835  -1.374  0.00  0.00    -0.228 OA
ATOM      2  S   UNL d   1      -0.115  -0.162  -0.004  0.00  0.00     0.144 S 
ATOM      3  O   UNL d   1      -0.578  -0.817   1.380  0.00  0.00    -0.228 OA
ATOM      4  C   UNL d   1      -0.249   1.644  -0.017  0.00  0.00     0.141 A 
ATOM      5  C   UNL d   1       1.287   1.821  -0.008  0.00  0.00     0.030 A 
ATOM      6  C   UNL d   1       1.633   0.313  -0.017  0.00  0.00     0.141 A 
ENDROOT
TORSDOF 0
