REMARK  0 active torsions:
REMARK  status: ('A' for Active; 'I' for Inactive)
ROOT
ATOM      1  C   UNL d   1      -0.061   0.074  -0.153  0.00  0.00     0.259 C 
ATOM      2  C   UNL d   1      -0.397   1.301  -1.037  0.00  0.00     0.259 C 
ATOM      3  N   UNL d   1       0.526   2.428  -0.764  0.00  0.00    -0.072 N 
ATOM      4  C   UNL d   1       1.962   2.063  -0.834  0.00  0.00     0.259 C 
ATOM      5  C   UNL d   1       2.272   0.830   0.050  0.00  0.00     0.259 C 
ATOM      6  N   UNL d   1       1.367  -0.288  -0.293  0.00  0.00    -0.072 N 
ATOM      7  H   UNL d   1       0.330   2.783   0.172  0.00  0.00     0.277 HD
ATOM      8  H   UNL d   1       0.362   3.125  -1.490  0.00  0.00     0.277 HD
ATOM      9  H   UNL d   1       1.541  -0.565  -1.259  0.00  0.00     0.277 HD
ATOM     10  H   UNL d   1       1.558  -1.051   0.356  0.00  0.00     0.277 HD
ENDROOT
TORSDOF 0
