REMARK  2 active torsions:
REMARK  status: ('A' for Active; 'I' for Inactive)
REMARK    1  A    between atoms: C_2  and  O_1 
REMARK    2  A    between atoms: C_6  and  O_7 
ROOT
ATOM      1  C   UNL d   1      -0.787   0.483   0.720  0.00  0.00     0.172 C 
ATOM      2  C   UNL d   1      -0.898   1.960   1.130  0.00  0.00     0.201 C 
ATOM      3  O   UNL d   1      -1.475   2.638   0.013  0.00  0.00    -0.386 OA
ATOM      4  C   UNL d   1      -2.340   1.709  -0.657  0.00  0.00     0.201 C 
ATOM      5  C   UNL d   1      -2.079   0.299  -0.089  0.00  0.00     0.172 C 
ENDROOT
BRANCH   1   6
ATOM      6  O   UNL d   1       0.370   0.256  -0.087  0.00  0.00    -0.391 OA
ATOM      7  H   UNL d   1       1.168   0.380   0.450  0.00  0.00     0.210 HD
ENDBRANCH   1   6
BRANCH   5   8
ATOM      8  O   UNL d   1      -1.964  -0.695  -1.107  0.00  0.00    -0.391 OA
ATOM      9  H   UNL d   1      -1.244  -0.456  -1.712  0.00  0.00     0.210 HD
ENDBRANCH   5   8
TORSDOF 2
