REMARK  0 active torsions:
REMARK  status: ('A' for Active; 'I' for Inactive)
ROOT
ATOM      1  O   UNL d   1       2.152  -1.688  -0.824  0.00  0.00    -0.271 OA
ATOM      2  C   UNL d   1       1.296  -0.775  -0.826  0.00  0.00     0.243 C 
ATOM      3  C   UNL d   1       0.517  -0.358  -1.976  0.00  0.00     0.133 C 
ATOM      4  C   UNL d   1      -0.117   0.918  -1.388  0.00  0.00     0.210 C 
ATOM      5  O   UNL d   1       0.006   0.818   0.038  0.00  0.00    -0.277 OA
ATOM      6  N   UNL d   1       1.004  -0.009   0.224  0.00  0.00    -0.235 N 
ATOM      7  H   UNL d   1       1.499  -0.062   1.073  0.00  0.00     0.197 HD
ENDROOT
TORSDOF 0
