REMARK  2 active torsions:
REMARK  status: ('A' for Active; 'I' for Inactive)
REMARK    1  A    between atoms: N_1  and  C_2 
REMARK    2  A    between atoms: C_2  and  C_3 
ROOT
ATOM      1  C   UNL d   1      -0.311   1.002   1.124  0.00  0.00    -0.026 A 
ATOM      2  C   UNL d   1       0.361   0.833   2.357  0.00  0.00     0.016 A 
ATOM      3  C   UNL d   1      -0.352   1.222   3.494  0.00  0.00     0.050 A 
ATOM      4  S   UNL d   1      -1.912   1.805   2.946  0.00  0.00    -0.113 SA
ATOM      5  C   UNL d   1      -1.607   1.533   1.241  0.00  0.00     0.058 A 
ENDROOT
BRANCH   1   6
ATOM      6  C   UNL d   1       0.299   0.626  -0.166  0.00  0.00     0.268 C 
BRANCH   6   7
ATOM      7  N   UNL d   1       0.005  -0.782  -0.442  0.00  0.00    -0.075 N 
ATOM      8  H   UNL d   1       0.424  -1.049  -1.333  0.00  0.00     0.274 HD
ATOM      9  H   UNL d   1      -1.006  -0.915  -0.488  0.00  0.00     0.274 HD
ATOM     10  H   UNL d   1       0.390  -1.363   0.303  0.00  0.00     0.274 HD
ENDBRANCH   6   7
ENDBRANCH   1   6
TORSDOF 2
