REMARK  2 active torsions:
REMARK  status: ('A' for Active; 'I' for Inactive)
REMARK       I    between atoms: N_2  and  C_3 
REMARK    1  A    between atoms: C_5  and  C_3 
REMARK    2  A    between atoms: C_5  and  N_7 
ROOT
ATOM      1  C   UNL d   1      -2.035  -1.348   0.041  0.00  0.00     0.270 C 
ATOM      2  C   UNL d   1      -2.387  -1.268   1.545  0.00  0.00     0.050 C 
ENDROOT
BRANCH   1   3
ATOM      3  C   UNL d   1      -0.574  -1.268  -0.205  0.00  0.00     0.247 C 
ATOM      4  N   UNL d   1       0.114  -0.143   0.133  0.00  0.00    -0.364 N 
ATOM      5  C   UNL d   1       1.507   0.064  -0.082  0.00  0.00     0.149 C 
ATOM      6  H   UNL d   1      -0.392   0.586   0.561  0.00  0.00     0.161 HD
ATOM      7  O   UNL d   1       0.010  -2.248  -0.728  0.00  0.00    -0.271 OA
ENDBRANCH   1   3
BRANCH   1   8
ATOM      8  N   UNL d   1      -2.729  -0.287  -0.703  0.00  0.00    -0.067 N 
ATOM      9  H   UNL d   1      -2.414   0.624  -0.369  0.00  0.00     0.275 HD
ATOM     10  H   UNL d   1      -3.735  -0.373  -0.557  0.00  0.00     0.275 HD
ATOM     11  H   UNL d   1      -2.520  -0.376  -1.697  0.00  0.00     0.275 HD
ENDBRANCH   1   8
TORSDOF 2
