REMARK  2 active torsions:
REMARK  status: ('A' for Active; 'I' for Inactive)
REMARK       I    between atoms: N_1  and  C_2 
REMARK    1  A    between atoms: C_2  and  C_4 
REMARK    2  A    between atoms: C_4  and  N_5 
ROOT
ATOM      1  C   UNL d   1       1.789  -0.863  -1.532  0.00  0.00     0.203 A 
ATOM      2  C   UNL d   1       0.596  -1.083  -2.480  0.00  0.00     0.052 A 
ATOM      3  C   UNL d   1       1.074  -2.227  -1.575  0.00  0.00     0.052 A 
ENDROOT
BRANCH   1   4
ATOM      4  C   UNL d   1       1.595  -0.064  -0.312  0.00  0.00     0.251 C 
ATOM      5  N   UNL d   1       2.006  -0.528   0.880  0.00  0.00    -0.368 N 
ATOM      6  H   UNL d   1       1.872   0.013   1.692  0.00  0.00     0.159 HD
ATOM      7  H   UNL d   1       2.441  -1.409   0.942  0.00  0.00     0.159 HD
ATOM      8  O   UNL d   1       1.084   1.077  -0.379  0.00  0.00    -0.271 OA
ENDBRANCH   1   4
BRANCH   1   9
ATOM      9  N   UNL d   1       3.130  -0.869  -2.125  0.00  0.00    -0.061 N 
ATOM     10  H   UNL d   1       3.535   0.065  -2.058  0.00  0.00     0.275 HD
ATOM     11  H   UNL d   1       3.067  -1.143  -3.106  0.00  0.00     0.275 HD
ATOM     12  H   UNL d   1       3.720  -1.532  -1.624  0.00  0.00     0.275 HD
ENDBRANCH   1   9
TORSDOF 2
