REMARK  3 active torsions:
REMARK  status: ('A' for Active; 'I' for Inactive)
REMARK    1  A    between atoms: C_2  and  N_3 
REMARK    2  A    between atoms: C_2  and  C_4 
REMARK    3  A    between atoms: C_4  and  C_5 
REMARK       I    between atoms: C_5  and  N_7 
ROOT
ATOM      1  C   UNL d   1       1.009   2.252  -3.069  0.00  0.00     0.040 C 
ATOM      2  C   UNL d   1       1.212   2.144  -1.536  0.00  0.00     0.188 C 
ENDROOT
BRANCH   2   3
ATOM      3  N   UNL d   1      -0.055   2.458  -0.854  0.00  0.00    -0.075 N 
ATOM      4  H   UNL d   1      -0.770   1.788  -1.139  0.00  0.00     0.274 HD
ATOM      5  H   UNL d   1      -0.352   3.400  -1.106  0.00  0.00     0.274 HD
ATOM      6  H   UNL d   1       0.080   2.402   0.156  0.00  0.00     0.274 HD
ENDBRANCH   2   3
BRANCH   2   7
ATOM      7  C   UNL d   1       1.713   0.727  -1.134  0.00  0.00     0.135 C 
BRANCH   7   8
ATOM      8  C   UNL d   1       2.019   0.596   0.306  0.00  0.00     0.217 C 
ATOM      9  O   UNL d   1       1.288  -0.091   1.054  0.00  0.00    -0.274 OA
ATOM     10  N   UNL d   1       3.100   1.196   0.836  0.00  0.00    -0.370 N 
ATOM     11  H   UNL d   1       3.689   1.742   0.266  0.00  0.00     0.159 HD
ATOM     12  H   UNL d   1       3.302   1.090   1.793  0.00  0.00     0.159 HD
ENDBRANCH   7   8
ENDBRANCH   2   7
TORSDOF 3
