REMARK  2 active torsions:
REMARK  status: ('A' for Active; 'I' for Inactive)
REMARK    1  A    between atoms: C_2  and  C_3 
REMARK    2  A    between atoms: C_3  and  N_4 
ROOT
ATOM      1  C   UNL d   1       1.877   1.566  -0.103  0.00  0.00     0.067 C 
ATOM      2  N   UNL d   1       1.450   2.629  -0.753  0.00  0.00    -0.389 N 
ATOM      3  H   UNL d   1       0.484   2.770  -0.885  0.00  0.00     0.157 HD
ATOM      4  H   UNL d   1       2.095   3.283  -1.107  0.00  0.00     0.157 HD
ENDROOT
BRANCH   1   5
ATOM      5  C   UNL d   1       0.958   0.582   0.439  0.00  0.00     0.071 C 
ATOM      6  C   UNL d   1       1.042  -0.776  -0.299  0.00  0.00     0.013 C 
ENDBRANCH   1   5
BRANCH   1   7
ATOM      7  N   UNL d   1       3.139   1.428   0.042  0.00  0.00    -0.389 N 
ATOM      8  H   UNL d   1       3.496   0.646   0.522  0.00  0.00     0.157 HD
ATOM      9  H   UNL d   1       3.754   2.103  -0.326  0.00  0.00     0.157 HD
ENDBRANCH   1   7
TORSDOF 2
