REMARK  2 active torsions:
REMARK  status: ('A' for Active; 'I' for Inactive)
REMARK    1  A    between atoms: N_1  and  C_2 
REMARK    2  A    between atoms: C_5  and  N_6 
ROOT
ATOM      1  C   UNL d   1      -1.542   1.670  -1.093  0.00  0.00     0.130 A 
ATOM      2  C   UNL d   1      -1.231   2.198  -2.352  0.00  0.00     0.103 A 
ATOM      3  S   UNL d   1       0.300   1.469  -2.794  0.00  0.00    -0.061 SA
ATOM      4  C   UNL d   1       0.448   0.531  -1.319  0.00  0.00     0.166 A 
ATOM      5  N   UNL d   1      -0.641   0.796  -0.565  0.00  0.00    -0.207 NA
ENDROOT
BRANCH   1   6
ATOM      6  N   UNL d   1      -2.661   2.004  -0.431  0.00  0.00    -0.384 N 
ATOM      7  H   UNL d   1      -3.299   2.639  -0.831  0.00  0.00     0.157 HD
ATOM      8  H   UNL d   1      -2.843   1.615   0.455  0.00  0.00     0.157 HD
ENDBRANCH   1   6
BRANCH   4   9
ATOM      9  N   UNL d   1       1.456  -0.291  -0.999  0.00  0.00    -0.378 N 
ATOM     10  H   UNL d   1       2.207  -0.414  -1.624  0.00  0.00     0.158 HD
ATOM     11  H   UNL d   1       1.446  -0.771  -0.140  0.00  0.00     0.158 HD
ENDBRANCH   4   9
TORSDOF 2
