REMARK  1 active torsions:
REMARK  status: ('A' for Active; 'I' for Inactive)
REMARK    1  A    between atoms: O_1  and  C_2 
ROOT
ATOM      1  C   UNL d   1       1.347   2.371   0.363  0.00  0.00     0.161 A 
ATOM      2  C   UNL d   1       2.088   1.208   0.078  0.00  0.00     0.058 A 
ATOM      3  C   UNL d   1       1.403   0.027  -0.265  0.00  0.00     0.006 A 
ATOM      4  C   UNL d   1      -0.002   0.026  -0.321  0.00  0.00     0.019 A 
ATOM      5  C   UNL d   1      -0.698   1.214  -0.033  0.00  0.00     0.119 A 
ATOM      6  N   UNL d   1      -0.009   2.337   0.295  0.00  0.00    -0.237 NA
ENDROOT
BRANCH   1   7
ATOM      7  O   UNL d   1       1.969   3.518   0.721  0.00  0.00    -0.345 OA
ATOM      8  H   UNL d   1       2.904   3.548   0.770  0.00  0.00     0.219 HD
ENDBRANCH   1   7
TORSDOF 1
