REMARK  2 active torsions:
REMARK  status: ('A' for Active; 'I' for Inactive)
REMARK    1  A    between atoms: N_1  and  C_2 
REMARK    2  A    between atoms: C_2  and  C_3 
ROOT
ATOM      1  N   UNL d   1       1.485  -0.003  -0.236  0.00  0.00    -0.079 N 
ATOM      2  H   UNL d   1       2.118  -0.769  -0.466  0.00  0.00     0.274 HD
ATOM      3  H   UNL d   1       2.029   0.818   0.032  0.00  0.00     0.274 HD
ATOM      4  H   UNL d   1       0.912   0.220  -1.049  0.00  0.00     0.274 HD
ENDROOT
BRANCH   1   5
ATOM      5  C   UNL d   1       0.620  -0.401   0.878  0.00  0.00     0.234 C 
BRANCH   5   6
ATOM      6  C   UNL d   1      -0.334   0.765   1.220  0.00  0.00     0.011 A 
ATOM      7  C   UNL d   1      -0.891   0.877   2.648  0.00  0.00     0.007 A 
ATOM      8  C   UNL d   1       0.186   1.858   2.167  0.00  0.00     0.007 A 
ENDBRANCH   5   6
ENDBRANCH   1   5
TORSDOF 2
