REMARK  1 active torsions:
REMARK  status: ('A' for Active; 'I' for Inactive)
REMARK    1  A    between atoms: N_1  and  C_2 
ROOT
ATOM      1  C   UNL d   1      -0.410   1.013   0.047  0.00  0.00     0.142 A 
ATOM      2  C   UNL d   1       0.177  -0.240  -0.032  0.00  0.00     0.070 A 
ATOM      3  C   UNL d   1       1.539   0.001  -0.078  0.00  0.00     0.113 A 
ATOM      4  N   UNL d   1       1.703   1.331  -0.017  0.00  0.00    -0.287 N 
ATOM      5  N   UNL d   1       0.562   1.942   0.055  0.00  0.00    -0.158 NA
ATOM      6  H   UNL d   1       2.577   1.784  -0.027  0.00  0.00     0.188 HD
ENDROOT
BRANCH   1   7
ATOM      7  N   UNL d   1      -1.726   1.267   0.103  0.00  0.00    -0.383 N 
ATOM      8  H   UNL d   1      -2.371   0.524   0.092  0.00  0.00     0.157 HD
ATOM      9  H   UNL d   1      -2.046   2.197   0.155  0.00  0.00     0.157 HD
ENDBRANCH   1   7
TORSDOF 1
