REMARK  1 active torsions:
REMARK  status: ('A' for Active; 'I' for Inactive)
REMARK    1  A    between atoms: C_5  and  N_6 
ROOT
ATOM      1  C   UNL d   1       1.342  -0.780  -0.280  0.00  0.00     0.156 C 
ATOM      2  N   UNL d   1      -0.000  -0.352  -0.058  0.00  0.00    -0.352 N 
ATOM      3  C   UNL d   1      -0.525   0.841  -0.401  0.00  0.00     0.211 A 
ATOM      4  N   UNL d   1      -1.818   0.910  -0.046  0.00  0.00    -0.225 NA
ATOM      5  C   UNL d   1      -2.119  -0.267   0.523  0.00  0.00     0.138 A 
ATOM      6  C   UNL d   1      -0.985  -1.065   0.516  0.00  0.00     0.141 A 
ENDROOT
BRANCH   5   7
ATOM      7  N   UNL d   1      -3.324  -0.603   1.009  0.00  0.00    -0.383 N 
ATOM      8  H   UNL d   1      -4.069   0.039   0.966  0.00  0.00     0.157 HD
ATOM      9  H   UNL d   1      -3.462  -1.492   1.409  0.00  0.00     0.157 HD
ENDBRANCH   5   7
TORSDOF 1
