REMARK  2 active torsions:
REMARK  status: ('A' for Active; 'I' for Inactive)
REMARK    1  A    between atoms: O_1  and  C_2 
REMARK    2  A    between atoms: C_2  and  C_3 
ROOT
ATOM      1  C   UNL d   1      -0.291   0.551  -1.300  0.00  0.00     0.052 A 
ATOM      2  C   UNL d   1      -1.280  -0.411  -1.434  0.00  0.00     0.049 A 
ATOM      3  C   UNL d   1      -1.707  -0.321  -2.748  0.00  0.00     0.141 A 
ATOM      4  N   UNL d   1      -1.002   0.645  -3.360  0.00  0.00    -0.187 NA
ATOM      5  N   UNL d   1      -0.173   1.148  -2.498  0.00  0.00    -0.281 N 
ATOM      6  H   UNL d   1       0.462   1.874  -2.697  0.00  0.00     0.189 HD
ENDROOT
BRANCH   1   7
ATOM      7  C   UNL d   1       0.494   0.853  -0.095  0.00  0.00     0.222 C 
BRANCH   7   8
ATOM      8  O   UNL d   1       1.659   0.038  -0.086  0.00  0.00    -0.395 OA
ATOM      9  H   UNL d   1       2.183   0.232   0.707  0.00  0.00     0.209 HD
ENDBRANCH   7   8
ENDBRANCH   1   7
TORSDOF 2
