REMARK  1 active torsions:
REMARK  status: ('A' for Active; 'I' for Inactive)
REMARK    1  A    between atoms: N_1  and  C_2 
ROOT
ATOM      1  C   UNL d   1      -0.757  -1.223  -0.020  0.00  0.00     0.276 A 
ATOM      2  C   UNL d   1      -2.216  -0.702  -0.003  0.00  0.00     0.062 A 
ATOM      3  C   UNL d   1      -2.114   0.839  -0.080  0.00  0.00     0.125 A 
ATOM      4  N   UNL d   1      -0.729   1.101  -0.147  0.00  0.00    -0.359 N 
ATOM      5  C   UNL d   1       0.032   0.004  -0.113  0.00  0.00     0.248 A 
ATOM      6  O   UNL d   1       1.283   0.036  -0.150  0.00  0.00    -0.271 OA
ATOM      7  H   UNL d   1      -0.357   2.010  -0.213  0.00  0.00     0.162 HD
ENDROOT
BRANCH   1   8
ATOM      8  N   UNL d   1      -0.473  -2.114  -1.156  0.00  0.00    -0.066 N 
ATOM      9  H   UNL d   1      -1.034  -2.962  -1.071  0.00  0.00     0.275 HD
ATOM     10  H   UNL d   1       0.517  -2.359  -1.157  0.00  0.00     0.275 HD
ATOM     11  H   UNL d   1      -0.707  -1.638  -2.028  0.00  0.00     0.275 HD
ENDBRANCH   1   8
TORSDOF 1
