REMARK  0 active torsions:
REMARK  status: ('A' for Active; 'I' for Inactive)
ROOT
ATOM      1 BR   UNL d   1      -2.201   1.910  -0.000  0.00  0.00    -0.048 Br
ATOM      2  C   UNL d   1      -0.443   1.311   0.000  0.00  0.00     0.047 A 
ATOM      3  C   UNL d   1      -0.004  -0.004  -0.000  0.00  0.00     0.159 A 
ATOM      4  N   UNL d   1       1.341  -0.003  -0.000  0.00  0.00    -0.186 NA
ATOM      5  N   UNL d   1       1.743   1.231   0.000  0.00  0.00    -0.288 N 
ATOM      6  C   UNL d   1       0.707   2.082   0.000  0.00  0.00     0.129 A 
ATOM      7  H   UNL d   1       2.688   1.507   0.000  0.00  0.00     0.188 HD
ENDROOT
TORSDOF 0
