REMARK  2 active torsions:
REMARK  status: ('A' for Active; 'I' for Inactive)
REMARK    1  A    between atoms: C_2  and  O_3 
REMARK    2  A    between atoms: O_3  and  C_4 
REMARK       I    between atoms: C_4  and  N_6 
ROOT
ATOM      1  C   UNL d   1       2.054   2.244   0.997  0.00  0.00     0.358 C 
ATOM      2  O   UNL d   1       3.234   1.840   0.893  0.00  0.00    -0.239 OA
ATOM      3  N   UNL d   1       1.792   3.266   1.826  0.00  0.00    -0.346 N 
ATOM      4  H   UNL d   1       0.870   3.598   1.922  0.00  0.00     0.161 HD
ATOM      5  H   UNL d   1       2.522   3.683   2.339  0.00  0.00     0.161 HD
ENDROOT
BRANCH   1   6
ATOM      6  O   UNL d   1       1.026   1.685   0.299  0.00  0.00    -0.305 OA
BRANCH   6   7
ATOM      7  C   UNL d   1       1.070   0.540  -0.568  0.00  0.00     0.176 C 
ATOM      8  C   UNL d   1       0.057  -0.509  -0.075  0.00  0.00     0.034 C 
ENDBRANCH   6   7
ENDBRANCH   1   6
TORSDOF 2
