REMARK  0 active torsions:
REMARK  status: ('A' for Active; 'I' for Inactive)
ROOT
ATOM      1  O   UNL d   1       0.717   1.138  -2.162  0.00  0.00    -0.211 OA
ATOM      2  S   UNL d   1       0.231   0.310  -0.883  0.00  0.00     0.210 S 
ATOM      3  O   UNL d   1      -0.714  -0.962  -1.091  0.00  0.00    -0.211 OA
ATOM      4  C   UNL d   1       1.495   0.091   0.381  0.00  0.00     0.172 A 
ATOM      5  C   UNL d   1       0.741   1.085   1.282  0.00  0.00     0.120 A 
ATOM      6  N   UNL d   1      -0.385   1.370   0.364  0.00  0.00    -0.219 NA
ATOM      7  H   UNL d   1      -1.290   1.079   0.732  0.00  0.00     0.139 HD
ENDROOT
TORSDOF 0
