REMARK  1 active torsions:
REMARK  status: ('A' for Active; 'I' for Inactive)
REMARK    1  A    between atoms: N_1  and  C_2 
ROOT
ATOM      1  C   UNL d   1       1.632   1.523   0.056  0.00  0.00     0.717 A 
ATOM      2  N   UNL d   1       1.389   0.201   0.045  0.00  0.00     0.042 NA
ATOM      3  N   UNL d   1       0.106   0.021  -0.000  0.00  0.00    -0.129 NA
ATOM      4  C   UNL d   1      -0.486   1.226  -0.017  0.00  0.00     0.249 A 
ATOM      5  N   UNL d   1       0.462   2.165   0.018  0.00  0.00    -0.181 N 
ATOM      6  H   UNL d   1       0.325   3.140   0.016  0.00  0.00     0.185 HD
ENDROOT
BRANCH   1   7
ATOM      7  N   UNL d   1       2.845   2.097   0.092  0.00  0.00    -0.231 N 
ATOM      8  H   UNL d   1       3.654   1.538   0.119  0.00  0.00     0.174 HD
ATOM      9  H   UNL d   1       2.925   3.079   0.093  0.00  0.00     0.174 HD
ENDBRANCH   1   7
TORSDOF 1
