REMARK  2 active torsions:
REMARK  status: ('A' for Active; 'I' for Inactive)
REMARK    1  A    between atoms: N_1  and  C_2 
REMARK    2  A    between atoms: C_2  and  C_3 
ROOT
ATOM      1  C   UNL d   1      -0.498   0.628   1.181  0.00  0.00     0.147 C 
ATOM      2  C   UNL d   1      -0.346  -0.200   2.475  0.00  0.00     0.036 C 
ATOM      3  C   UNL d   1       0.362   0.792   3.404  0.00  0.00     0.029 C 
ATOM      4  C   UNL d   1       1.262   1.547   2.414  0.00  0.00     0.168 C 
ATOM      5  O   UNL d   1       0.608   1.546   1.138  0.00  0.00    -0.384 OA
ENDROOT
BRANCH   1   6
ATOM      6  C   UNL d   1      -0.556  -0.218  -0.114  0.00  0.00     0.261 C 
BRANCH   6   7
ATOM      7  N   UNL d   1      -0.732   0.643  -1.291  0.00  0.00    -0.077 N 
ATOM      8  H   UNL d   1      -0.768   0.067  -2.132  0.00  0.00     0.274 HD
ATOM      9  H   UNL d   1       0.051   1.293  -1.357  0.00  0.00     0.274 HD
ATOM     10  H   UNL d   1      -1.602   1.168  -1.201  0.00  0.00     0.274 HD
ENDBRANCH   6   7
ENDBRANCH   1   6
TORSDOF 2
