REMARK  2 active torsions:
REMARK  status: ('A' for Active; 'I' for Inactive)
REMARK    1  A    between atoms: C_2  and  C_3 
REMARK       I    between atoms: C_3  and  N_5 
REMARK    2  A    between atoms: N_5  and  O_6 
ROOT
ATOM      1  C   UNL d   1       0.827  -0.988   0.538  0.00  0.00     0.240 C 
ATOM      2  O   UNL d   1       2.063  -1.175   0.634  0.00  0.00    -0.271 OA
ATOM      3  N   UNL d   1       0.361   0.097  -0.126  0.00  0.00    -0.237 N 
ATOM      4  H   UNL d   1      -0.611   0.248  -0.165  0.00  0.00     0.197 HD
ENDROOT
BRANCH   1   5
ATOM      5  C   UNL d   1      -0.110  -1.975   1.121  0.00  0.00     0.100 C 
ATOM      6  C   UNL d   1      -1.040  -1.389   2.206  0.00  0.00     0.014 C 
ENDBRANCH   1   5
BRANCH   3   7
ATOM      7  O   UNL d   1       1.155   0.949  -0.717  0.00  0.00    -0.287 OA
ATOM      8  H   UNL d   1       2.076   0.671  -0.594  0.00  0.00     0.244 HD
ENDBRANCH   3   7
TORSDOF 2
