REMARK  2 active torsions:
REMARK  status: ('A' for Active; 'I' for Inactive)
REMARK    1  A    between atoms: O_1  and  C_2 
REMARK    2  A    between atoms: C_2  and  CA_3 
ROOT
ATOM      1  CA  PRO d   1      -0.911   0.692   0.973  0.00  0.00     0.209 C 
ATOM      2  CB  PRO d   1      -2.037  -0.184   1.569  0.00  0.00     0.037 C 
ATOM      3  CG  PRO d   1      -3.289   0.666   1.328  0.00  0.00     0.029 C 
ATOM      4  CD  PRO d   1      -2.992   1.345  -0.018  0.00  0.00     0.233 C 
ATOM      5  N   PRO d   1      -1.526   1.476  -0.118  0.00  0.00    -0.069 N 
ATOM      6  H1  PRO d   1      -1.210   1.119  -1.020  0.00  0.00     0.277 HD
ATOM      7  H2  PRO d   1      -1.256   2.457  -0.040  0.00  0.00     0.277 HD
ENDROOT
BRANCH   1   8
ATOM      8  C   PRO d   1       0.323  -0.108   0.483  0.00  0.00     0.197 C 
BRANCH   8   9
ATOM      9  O   PRO d   1       1.335   0.775   0.003  0.00  0.00    -0.399 OA
ATOM     10  H   PRO d   1       2.098   0.259  -0.299  0.00  0.00     0.209 HD
ENDBRANCH   8   9
ENDBRANCH   1   8
TORSDOF 2
