REMARK  1 active torsions:
REMARK  status: ('A' for Active; 'I' for Inactive)
REMARK    1  A    between atoms: N_1  and  C_2 
ROOT
ATOM      1  C   UNL d   1       2.081   0.969  -0.047  0.00  0.00     0.143 A 
ATOM      2  C   UNL d   1       1.285  -0.194  -0.023  0.00  0.00     0.053 A 
ATOM      3  C   UNL d   1      -0.115  -0.059   0.006  0.00  0.00     0.025 A 
ATOM      4  C   UNL d   1      -0.674   1.231   0.005  0.00  0.00     0.141 A 
ATOM      5  N   UNL d   1       0.158   2.304  -0.019  0.00  0.00    -0.161 NA
ATOM      6  N   UNL d   1       1.462   2.178  -0.043  0.00  0.00    -0.133 NA
ENDROOT
BRANCH   1   7
ATOM      7  N   UNL d   1       3.424   0.906  -0.067  0.00  0.00    -0.383 N 
ATOM      8  H   UNL d   1       3.877   0.032  -0.070  0.00  0.00     0.157 HD
ATOM      9  H   UNL d   1       3.955   1.736  -0.078  0.00  0.00     0.157 HD
ENDBRANCH   1   7
TORSDOF 1
