REMARK  4 active torsions:
REMARK  status: ('A' for Active; 'I' for Inactive)
REMARK    1  A    between atoms: C_2  and  C_4 
REMARK    2  A    between atoms: C_4  and  C_5 
REMARK    3  A    between atoms: C_5  and  C_6 
REMARK    4  A    between atoms: C_6  and  N_7 
ROOT
ATOM      1  C   UNL d   1      -1.070  -0.755   1.022  0.00  0.00     0.027 C 
ENDROOT
BRANCH   1   2
ATOM      2  C   UNL d   1      -2.363   0.056   1.316  0.00  0.00     0.005 C 
BRANCH   2   3
ATOM      3  C   UNL d   1      -3.523  -0.766   1.969  0.00  0.00    -0.023 C 
ATOM      4  C   UNL d   1      -4.721   0.162   2.315  0.00  0.00     0.009 C 
ATOM      5  C   UNL d   1      -4.011  -1.959   1.097  0.00  0.00     0.009 C 
ENDBRANCH   2   3
ENDBRANCH   1   2
BRANCH   1   6
ATOM      6  C   UNL d   1       0.056   0.080   0.366  0.00  0.00     0.229 C 
BRANCH   6   7
ATOM      7  N   UNL d   1       1.210  -0.779   0.071  0.00  0.00    -0.079 N 
ATOM      8  H   UNL d   1       1.560  -1.188   0.938  0.00  0.00     0.274 HD
ATOM      9  H   UNL d   1       1.946  -0.223  -0.364  0.00  0.00     0.274 HD
ATOM     10  H   UNL d   1       0.925  -1.524  -0.566  0.00  0.00     0.274 HD
ENDBRANCH   6   7
ENDBRANCH   1   6
TORSDOF 4
