@<TRIPOS>MOLECULE
lig_63.pdbqt
43 45 1 0 0
SMALL
AMBER ff14SB


@<TRIPOS>ATOM
      1 C           3.1500    3.3403    2.2251 C.ar      1 UNL1   -0.1212
      2 C           3.7129    3.7643    3.4347 C.ar      1 UNL1   -0.3282
      3 S           2.8547    5.1262    4.1884 S.2       1 UNL1    0.2481
      4 C           1.7390    5.1535    2.8184 C.ar      1 UNL1   -0.0671
      5 C           0.6774    6.0561    2.6465 C.2       1 UNL1   -0.0920
      6 C          -0.1159    5.9583    1.4892 C.2       1 UNL1   -0.1500
      7 CL         -1.4455    7.0700    1.2442 Cl        1 UNL1   -0.1184
      8 C           0.1607    4.9713    0.5244 C.2       1 UNL1   -0.1460
      9 C           1.2305    4.0755    0.7150 C.2       1 UNL1    0.0494
     10 C           2.0128    4.1766    1.8780 C.ar      1 UNL1   -0.0270
     11 C           3.6909    2.1795    1.4241 C.3       1 UNL1   -0.0172
     12 C           4.9059    2.5959    0.5651 C.3       1 UNL1   -0.0984
     13 C           5.7209    1.3819    0.0844 C.3       1 UNL1    0.1074
     14 O           4.9142    0.6169   -0.8312 O.2       1 UNL1   -0.3519
     15 C           5.4133   -0.5420   -1.3651 C.2       1 UNL1    0.1361
     16 C           4.7846   -1.7553   -1.0654 C.2       1 UNL1   -0.1785
     17 C           5.2726   -2.9609   -1.6014 C.2       1 UNL1   -0.0398
     18 C           4.5817   -4.2717   -1.2511 C.3       1 UNL1   -0.0613
     19 C           6.3993   -2.9345   -2.4527 C.2       1 UNL1   -0.0276
     20 C           7.0309   -1.7095   -2.7619 C.2       1 UNL1   -0.0398
     21 CL          7.0178   -4.4337   -3.1321 Cl        1 UNL1   -0.1394
     22 C           6.5292   -0.5154   -2.2125 C.2       1 UNL1   -0.1785
     23 C           8.2451   -1.6609   -3.6794 C.3       1 UNL1   -0.0613
     24 C           4.9080    3.2331    4.1343 C.2       1 UNL1    0.9218
     25 O           5.2028    3.7690    5.1882 O.co2     1 UNL1   -0.8088
     26 O           5.5633    2.3246    3.6536 O.co2     1 UNL1   -0.8088
     27 HC          0.4742    6.8177    3.3932 H         1 UNL1    0.1250
     28 HC1        -0.4512    4.9024   -0.3695 H         1 UNL1    0.1190
     29 HC2         1.4487    3.3196   -0.0314 H         1 UNL1    0.1280
     30 HC3         2.9155    1.7620    0.7725 H         1 UNL1    0.0597
     31 HC4         3.9639    1.3572    2.0965 H         1 UNL1    0.0597
     32 HC5         5.5683    3.2362    1.1612 H         1 UNL1    0.0432
     33 HC6         4.5741    3.1967   -0.2906 H         1 UNL1    0.0432
     34 HC7         6.6360    1.7321   -0.4078 H         1 UNL1    0.0842
     35 HC8         6.0091    0.7722    0.9524 H         1 UNL1    0.0842
     36 HC9         3.9237   -1.7480   -0.4046 H         1 UNL1    0.1730
     37 HC10        6.9949    0.4360   -2.4442 H         1 UNL1    0.1730
     38 HC11        3.7297   -4.1150   -0.5782 H         1 UNL1    0.0507
     39 HC12        5.2759   -4.9573   -0.7496 H         1 UNL1    0.0507
     40 HC13        4.2046   -4.7694   -2.1530 H         1 UNL1    0.0507
     41 HC14        8.6104   -0.6359   -3.8167 H         1 UNL1    0.0507
     42 HC15        9.0710   -2.2530   -3.2662 H         1 UNL1    0.0507
     43 HC16        8.0029   -2.0619   -4.6714 H         1 UNL1    0.0507
@<TRIPOS>BOND
     1   12   11 1
     2   12   13 1
     3   11    1 1
     4    9    8 2
     5    9   10 1
     6   15   16 2
     7   15   14 1
     8   15   22 1
     9   16   17 1
    10   14   13 1
    11   17   19 2
    12   17   18 1
    13   22   20 2
    14   19   20 1
    15   19   21 1
    16    8    6 1
    17   20   23 1
    18    1   10 ar
    19    1    2 ar
    20   10    4 ar
    21    6    7 1
    22    6    5 2
    23    2   24 1
    24    2    3 ar
    25    4    5 1
    26    4    3 ar
    27   26   24 ar
    28   24   25 ar
    29   27    5 1
    30   28    8 1
    31   29    9 1
    32   30   11 1
    33   31   11 1
    34   32   12 1
    35   33   12 1
    36   34   13 1
    37   35   13 1
    38   36   16 1
    39   37   22 1
    40   38   18 1
    41   39   18 1
    42   40   18 1
    43   41   23 1
    44   42   23 1
    45   43   23 1
@<TRIPOS>SUBSTRUCTURE
     1 UNL1     1 RESIDUE           4 A     UNL1     0 ROOT
