@<TRIPOS>MOLECULE
lig_49.pdbqt
41 43 1 0 0
SMALL
AMBER ff14SB


@<TRIPOS>ATOM
      1 C           0.3432   -1.9840    0.0758 C.ar      1 UNL1   -0.1742
      2 CA         -0.9519   -2.4051    0.5806 C.ar      1 UNL1    0.0513
      3 N          -1.9688   -1.9600   -0.2627 N.ar      1 UNL1   -0.2094
      4 C          -1.3627   -1.3002   -1.3125 C.ar      1 UNL1   -0.0403
      5 C          -2.0044   -0.7214   -2.4138 C.2       1 UNL1   -0.1450
      6 C          -1.2042   -0.1149   -3.3998 C.2       1 UNL1   -0.1420
      7 C           0.2013   -0.1066   -3.2664 C.2       1 UNL1   -0.1710
      8 C           0.8276   -0.6973   -2.1490 C.2       1 UNL1    0.0564
      9 CL          2.5787   -0.6738   -2.0694 Cl        1 UNL1   -0.1434
     10 C           0.0139   -1.2927   -1.1633 C.ar      1 UNL1   -0.0600
     11 C           1.6449   -2.2863    0.7788 C.3       1 UNL1   -0.0002
     12 C           2.1449   -3.7215    0.4835 C.3       1 UNL1   -0.0904
     13 C           3.5850   -3.7634   -0.0637 C.3       1 UNL1    0.1304
     14 O           4.4813   -3.2629    0.9439 O.2       1 UNL1   -0.3329
     15 C           5.8036   -3.0570    0.6474 C.2       1 UNL1    0.1531
     16 C           6.1793   -2.1909   -0.3920 C.2       1 UNL1   -0.1910
     17 C           7.5398   -1.9731   -0.6807 C.2       1 UNL1   -0.0343
     18 C           7.9312   -1.0259   -1.8057 C.3       1 UNL1   -0.0558
     19 C           8.5216   -2.6329    0.0890 C.2       1 UNL1   -0.0276
     20 C           8.1428   -3.4898    1.1365 C.2       1 UNL1   -0.1000
     21 CL         10.2316   -2.3995   -0.2244 Cl        1 UNL1   -0.1264
     22 C           6.7825   -3.6975    1.4183 C.2       1 UNL1   -0.1640
     23 C          -1.2740   -3.2061    1.7973 C.2       1 UNL1    0.8393
     24 O          -2.4618   -3.4225    1.9967 O.co2     1 UNL1   -0.8098
     25 OXT        -0.3906   -3.6370    2.5194 O.co2     1 UNL1   -0.8098
     26 H          -2.9473   -2.1502   -0.1047 H         1 UNL1    0.3137
     27 HC         -3.0858   -0.7443   -2.5051 H         1 UNL1    0.1220
     28 HC1        -1.6689    0.3410   -4.2690 H         1 UNL1    0.1140
     29 HC2         0.8125    0.3550   -4.0355 H         1 UNL1    0.1240
     30 HC3         1.5311   -2.1584    1.8626 H         1 UNL1    0.0582
     31 HC4         2.4035   -1.5493    0.4963 H         1 UNL1    0.0582
     32 HC5         2.0786   -4.3228    1.3994 H         1 UNL1    0.0657
     33 HC6         1.4793   -4.2007   -0.2451 H         1 UNL1    0.0657
     34 HC7         3.6434   -3.1587   -0.9764 H         1 UNL1    0.0407
     35 HC8         3.8530   -4.7966   -0.3179 H         1 UNL1    0.0407
     36 HC9         5.4090   -1.6782   -0.9596 H         1 UNL1    0.1610
     37 HC10        8.9042   -3.9866    1.7306 H         1 UNL1    0.1370
     38 HC11        6.4780   -4.3517    2.2294 H         1 UNL1    0.1480
     39 HC12        8.5345   -0.1937   -1.4225 H         1 UNL1    0.0490
     40 HC13        8.5197   -1.5480   -2.5701 H         1 UNL1    0.0490
     41 HC14        7.0512   -0.5976   -2.3011 H         1 UNL1    0.0490
@<TRIPOS>BOND
     1    6    5 1
     2    6    7 2
     3    5    4 2
     4    7    8 1
     5    8    9 1
     6    8   10 2
     7    4    3 ar
     8    4   10 ar
     9    3    2 ar
    10   10    1 ar
    11    2    1 ar
    12    2   23 1
    13    1   11 1
    14   21   19 1
    15   13   14 1
    16   13   12 1
    17   18   17 1
    18   24   23 ar
    19   14   15 1
    20   20   19 1
    21   20   22 2
    22   19   17 2
    23   17   16 1
    24   16   15 2
    25   22   15 1
    26   23   25 ar
    27   12   11 1
    28    3   26 1
    29   27    5 1
    30   28    6 1
    31   29    7 1
    32   30   11 1
    33   31   11 1
    34   32   12 1
    35   33   12 1
    36   34   13 1
    37   35   13 1
    38   36   16 1
    39   37   20 1
    40   38   22 1
    41   39   18 1
    42   40   18 1
    43   41   18 1
@<TRIPOS>SUBSTRUCTURE
     1 UNL1     2 RESIDUE           4 A     UNL1     0 ROOT
