@<TRIPOS>MOLECULE
lig_52.pdbqt
41 43 1 0 0
SMALL
AMBER ff14SB


@<TRIPOS>ATOM
      1 C           0.3584   -2.4292    0.4251 C.ar      1 UNL1   -0.1742
      2 CA         -0.8551   -3.1193    0.0257 C.ar      1 UNL1    0.0513
      3 N          -1.2097   -2.7606   -1.2785 N.ar      1 UNL1   -0.2094
      4 C          -0.2310   -1.9001   -1.7386 C.ar      1 UNL1   -0.0403
      5 C          -0.1271   -1.3265   -3.0124 C.2       1 UNL1   -0.1450
      6 C           0.9856   -0.5025   -3.2739 C.2       1 UNL1   -0.1420
      7 CL          1.1700    0.2338   -4.8508 Cl        1 UNL1   -0.1434
      8 C           1.9592   -0.2735   -2.2767 C.2       1 UNL1   -0.1710
      9 C           1.8300   -0.8637   -1.0026 C.2       1 UNL1    0.0564
     10 C           0.7149   -1.6771   -0.7588 C.ar      1 UNL1   -0.0600
     11 C           1.0732   -2.6349    1.7375 C.3       1 UNL1   -0.0002
     12 C           1.9369   -3.9182    1.7395 C.3       1 UNL1   -0.0904
     13 C           3.0024   -3.9331    0.6236 C.3       1 UNL1    0.1304
     14 O           3.9254   -2.8522    0.8593 O.2       1 UNL1   -0.3329
     15 C           4.9188   -2.4992   -0.0265 C.2       1 UNL1    0.1531
     16 C           5.8936   -1.5970    0.4226 C.2       1 UNL1   -0.1910
     17 C           6.9281   -1.1691   -0.4303 C.2       1 UNL1   -0.0343
     18 C           7.9711   -0.1846    0.0786 C.3       1 UNL1   -0.0558
     19 C           6.9748   -1.6574   -1.7523 C.2       1 UNL1   -0.0276
     20 C           5.9945   -2.5529   -2.2099 C.2       1 UNL1   -0.1000
     21 CL          8.2400   -1.1606   -2.8608 Cl        1 UNL1   -0.1264
     22 C           4.9658   -2.9741   -1.3509 C.2       1 UNL1   -0.1640
     23 C          -1.6617   -4.1055    0.8004 C.2       1 UNL1    0.8393
     24 OXT        -1.3261   -4.4371    1.9256 O.co2     1 UNL1   -0.8098
     25 O          -2.6421   -4.5662    0.2336 O.co2     1 UNL1   -0.8098
     26 H          -2.0101   -3.1341   -1.7673 H         1 UNL1    0.3137
     27 HC         -0.8741   -1.5149   -3.7768 H         1 UNL1    0.1220
     28 HC1         2.8166    0.3558   -2.4947 H         1 UNL1    0.1140
     29 HC2         2.5782   -0.7027   -0.2335 H         1 UNL1    0.1240
     30 HC3         1.7112   -1.7677    1.9472 H         1 UNL1    0.0582
     31 HC4         0.3512   -2.6773    2.5628 H         1 UNL1    0.0582
     32 HC5         1.2819   -4.7903    1.6182 H         1 UNL1    0.0657
     33 HC6         2.4258   -4.0277    2.7147 H         1 UNL1    0.0657
     34 HC7         2.5076   -3.8224   -0.3490 H         1 UNL1    0.0407
     35 HC8         3.5370   -4.8913    0.6339 H         1 UNL1    0.0407
     36 HC9         5.8333   -1.2307    1.4421 H         1 UNL1    0.1610
     37 HC10        6.0283   -2.9127   -3.2347 H         1 UNL1    0.1370
     38 HC11        4.2068   -3.6512   -1.7273 H         1 UNL1    0.1480
     39 HC12        8.9770   -0.6187    0.0261 H         1 UNL1    0.0490
     40 HC13        7.7861    0.1005    1.1214 H         1 UNL1    0.0490
     41 HC14        7.9661    0.7337   -0.5215 H         1 UNL1    0.0490
@<TRIPOS>BOND
     1    7    6 1
     2    6    5 1
     3    6    8 2
     4    5    4 2
     5    8    9 1
     6    4    3 ar
     7    4   10 ar
     8    9   10 2
     9    3    2 ar
    10   10    1 ar
    11    2    1 ar
    12    2   23 1
    13    1   11 1
    14   21   19 1
    15   13   14 1
    16   13   12 1
    17   20   22 1
    18   20   19 2
    19   22   15 2
    20   14   15 1
    21   25   23 ar
    22   18   17 1
    23   19   17 1
    24   15   16 1
    25   17   16 2
    26   23   24 ar
    27   12   11 1
    28    3   26 1
    29   27    5 1
    30   28    8 1
    31   29    9 1
    32   30   11 1
    33   31   11 1
    34   32   12 1
    35   33   12 1
    36   34   13 1
    37   35   13 1
    38   36   16 1
    39   37   20 1
    40   38   22 1
    41   39   18 1
    42   40   18 1
    43   41   18 1
@<TRIPOS>SUBSTRUCTURE
     1 UNL1     2 RESIDUE           4 A     UNL1     0 ROOT
