REMARK  Name = lig_34.pdbqt
REMARK  7 active torsions:
REMARK  status: ('A' for Active; 'I' for Inactive)
REMARK    1  A    between atoms: C_1  and  C_2
REMARK    2  A    between atoms: C_1  and  C_14
REMARK    3  A    between atoms: CA_10  and  C_11
REMARK    4  A    between atoms: C_14  and  C_15
REMARK    5  A    between atoms: C_15  and  O_16
REMARK    6  A    between atoms: O_16  and  C_17
REMARK    7  A    between atoms: C_20  and  C_23
REMARK                            x       y       z     vdW  Elec       q    Type
REMARK                         _______ _______ _______ _____ _____    ______ ____
ROOT
ATOM      1  C   UNL A   1       8.225   1.501   1.340  0.00  0.00    +0.104 C 
ENDROOT
BRANCH   1   2
ATOM      2  C   UNL A   1       9.099   1.172   0.152  0.00  0.00    -0.182 A 
ATOM      3  C   UNL A   1      10.378   1.757  -0.182  0.00  0.00    -0.071 A 
ATOM      4  C   UNL A   1      11.113   2.767   0.453  0.00  0.00    +0.025 C 
ATOM      5  C   UNL A   1      10.851   1.137  -1.306  0.00  0.00    -0.039 A 
ATOM      6  C   UNL A   1      12.359   3.128  -0.100  0.00  0.00    -0.068 C 
ATOM      7  C   UNL A   1      12.844   2.481  -1.260  0.00  0.00    -0.033 C 
ATOM      8  C   UNL A   1      12.085   1.467  -1.880  0.00  0.00    -0.031 C 
ATOM      9  N   UNL A   1       9.941   0.187  -1.712  0.00  0.00    -0.214 N 
ATOM     10  CA  UNL A   1       8.854   0.186  -0.818  0.00  0.00    -0.048 A 
ATOM     11  H   UNL A   1      10.009  -0.441  -2.498  0.00  0.00    +0.311 HD
BRANCH  10  12
ATOM     12  C   UNL A   1       7.698  -0.745  -0.974  0.00  0.00    +0.933 C 
ATOM     13  OXT UNL A   1       7.742  -1.502  -1.931  0.00  0.00    -0.823 OA
ATOM     14  O   UNL A   1       6.751  -0.711  -0.204  0.00  0.00    -0.823 OA
ENDBRANCH  10  12
ENDBRANCH   1   2
BRANCH   1  15
ATOM     15  C   UNL A   1       7.419   2.804   1.137  0.00  0.00    -0.024 C 
BRANCH  15  16
ATOM     16  C   UNL A   1       6.245   2.652   0.137  0.00  0.00    +0.288 C 
BRANCH  16  17
ATOM     17  O   UNL A   1       5.003   3.005   0.789  0.00  0.00    -0.346 OA
BRANCH  17  18
ATOM     18  C   UNL A   1       4.492   2.271   1.838  0.00  0.00    +0.133 C 
ATOM     19  C   UNL A   1       4.570   0.869   1.878  0.00  0.00    +0.066 C 
ATOM     20  C   UNL A   1       4.066   0.163   2.984  0.00  0.00    +0.039 C 
ATOM     21  C   UNL A   1       3.469   0.850   4.064  0.00  0.00    -0.137 C 
ATOM     22  C   UNL A   1       3.384   2.257   4.007  0.00  0.00    -0.019 C 
ATOM     23  C   UNL A   1       3.887   2.959   2.899  0.00  0.00    +0.019 C 
BRANCH  21  24
ATOM     24  C   UNL A   1       2.932   0.101   5.290  0.00  0.00    +0.687 C 
ATOM     25  F   UNL A   1       1.667   0.472   5.591  0.00  0.00    -0.249 F 
ATOM     26  F   UNL A   1       2.907  -1.242   5.138  0.00  0.00    -0.249 F 
ATOM     27  F   UNL A   1       3.676   0.353   6.389  0.00  0.00    -0.249 F 
ENDBRANCH  21  24
ENDBRANCH  17  18
ENDBRANCH  16  17
ENDBRANCH  15  16
ENDBRANCH   1  15
TORSDOF 7
