@<TRIPOS>MOLECULE
lig_43.pdbqt
44 47 1 0 0
SMALL
AMBER ff14SB


@<TRIPOS>ATOM
      1 C           4.3747    2.9370   -1.7411 C.3       1 UNL1   -0.0062
      2 C           4.2783    3.0125   -0.2351 C.ar      1 UNL1   -0.1802
      3 C           4.0237    4.1885    0.5656 C.ar      1 UNL1   -0.0710
      4 C           3.8422    5.5264    0.1903 C.2       1 UNL1   -0.0960
      5 C           3.9581    3.8059    1.8775 C.ar      1 UNL1   -0.0403
      6 C           3.5895    6.4720    1.2070 C.2       1 UNL1   -0.1780
      7 C           3.5230    6.0689    2.5608 C.2       1 UNL1   -0.1420
      8 C           3.7076    4.7158    2.9118 C.2       1 UNL1   -0.1500
      9 N           4.1613    2.4475    1.9598 N.ar      1 UNL1   -0.2144
     10 CA          4.3478    1.9343    0.6628 C.ar      1 UNL1   -0.0482
     11 C           4.5646    0.4792    0.4116 C.2       1 UNL1    0.9318
     12 O           4.5803   -0.2390    1.4000 O.co2     1 UNL1   -0.8218
     13 OXT         4.7410    0.0496   -0.7162 O.co2     1 UNL1   -0.8218
     14 C           5.7275    3.4626   -2.2740 C.3       1 UNL1   -0.0944
     15 C           6.9167    2.5143   -1.9779 C.3       1 UNL1    0.1134
     16 O           7.5698    2.1520   -3.2174 O.2       1 UNL1   -0.3509
     17 C           6.9373    1.3977   -4.1835 C.2       1 UNL1    0.1231
     18 C           7.1885    1.6843   -5.5338 C.2       1 UNL1   -0.1430
     19 C           6.5263    0.9683   -6.5476 C.2       1 UNL1   -0.1210
     20 C           5.6064   -0.0411   -6.2088 C.2       1 UNL1   -0.0700
     21 C           4.9201   -0.7528   -7.2098 C.2       1 UNL1   -0.1220
     22 C           5.3640   -0.3379   -4.8514 C.2       1 UNL1   -0.0050
     23 C           3.9960   -1.7517   -6.8573 C.2       1 UNL1   -0.1470
     24 C           3.7539   -2.0421   -5.5037 C.2       1 UNL1   -0.1470
     25 C           4.4377   -1.3347   -4.5007 C.2       1 UNL1   -0.1020
     26 C           6.0384    0.3724   -3.8465 C.2       1 UNL1   -0.1870
     27 H           4.1559    1.8684    2.7870 H         1 UNL1    0.3097
     28 HC2         3.5768    3.5587   -2.1653 H         1 UNL1    0.0557
     29 HC3         4.1809    1.9299   -2.1239 H         1 UNL1    0.0557
     30 HC          3.8934    5.8220   -0.8524 H         1 UNL1    0.1210
     31 HC1         3.4429    7.5158    0.9461 H         1 UNL1    0.1080
     32 HC4         3.3283    6.8052    3.3345 H         1 UNL1    0.1070
     33 HC5         3.6555    4.3889    3.9446 H         1 UNL1    0.1170
     34 HC6         5.9338    4.4438   -1.8297 H         1 UNL1    0.0352
     35 HC7         5.6376    3.6323   -3.3541 H         1 UNL1    0.0352
     36 HC8         6.5834    1.6230   -1.4324 H         1 UNL1    0.0832
     37 HC9         7.6319    3.0338   -1.3296 H         1 UNL1    0.0832
     38 HC10        7.8858    2.4756   -5.7870 H         1 UNL1    0.1340
     39 HC11        6.7187    1.2048   -7.5893 H         1 UNL1    0.1170
     40 HC12        5.0972   -0.5273   -8.2566 H         1 UNL1    0.1150
     41 HC13        3.4627   -2.2953   -7.6315 H         1 UNL1    0.1140
     42 HC14        3.0348   -2.8088   -5.2289 H         1 UNL1    0.1220
     43 HC15        4.2465   -1.5466   -3.4492 H         1 UNL1    0.1630
     44 HC16        5.8497    0.1295   -2.8069 H         1 UNL1    0.2130
@<TRIPOS>BOND
     1   23   21 2
     2   23   24 1
     3   21   20 1
     4   24   25 2
     5   20   19 2
     6   20   22 1
     7   19   18 1
     8   25   22 1
     9   22   26 2
    10   18   17 2
    11   26   17 1
    12   17   16 1
    13    4    6 1
    14    4    3 2
    15    1   14 1
    16    1    2 1
    17    6    7 2
    18   16   15 1
    19   14   15 1
    20    3    2 ar
    21    3    5 ar
    22    2   10 ar
    23    7    8 1
    24    5    8 2
    25    5    9 ar
    26   10   11 1
    27   10    9 ar
    28   12   11 ar
    29   11   13 ar
    30    9   27 1
    31   28    1 1
    32   29    1 1
    33   30    4 1
    34   31    6 1
    35   32    7 1
    36   33    8 1
    37   34   14 1
    38   35   14 1
    39   36   15 1
    40   37   15 1
    41   38   18 1
    42   39   19 1
    43   40   21 1
    44   41   23 1
    45   42   24 1
    46   43   25 1
    47   44   26 1
@<TRIPOS>SUBSTRUCTURE
     1 UNL1    10 RESIDUE           4 A     UNL1     0 ROOT
