REMARK  Name = lig_35.pdbqt
REMARK  7 active torsions:
REMARK  status: ('A' for Active; 'I' for Inactive)
REMARK    1  A    between atoms: C_1  and  C_10
REMARK    2  A    between atoms: CA_2  and  C_22
REMARK    3  A    between atoms: C_10  and  C_11
REMARK    4  A    between atoms: C_11  and  C_12
REMARK    5  A    between atoms: C_12  and  O_13
REMARK    6  A    between atoms: O_13  and  C_14
REMARK    7  A    between atoms: C_16  and  C_17
REMARK                            x       y       z     vdW  Elec       q    Type
REMARK                         _______ _______ _______ _____ _____    ______ ____
ROOT
ATOM      1  C   UNL A   1       0.345  -2.475   0.374  0.00  0.00    -0.195 A 
ATOM      2  CA  UNL A   1      -0.840  -3.139   0.027  0.00  0.00    -0.037 A 
ATOM      3  N   UNL A   1      -1.183  -2.745  -1.279  0.00  0.00    -0.214 N 
ATOM      4  C   UNL A   1      -0.217  -1.884  -1.752  0.00  0.00    -0.042 A 
ATOM      5  C   UNL A   1      -0.124  -1.285  -3.014  0.00  0.00    -0.029 C 
ATOM      6  C   UNL A   1       0.992  -0.460  -3.264  0.00  0.00    -0.037 C 
ATOM      7  C   UNL A   1       1.974  -0.263  -2.266  0.00  0.00    -0.066 C 
ATOM      8  C   UNL A   1       1.848  -0.883  -1.005  0.00  0.00    +0.011 C 
ATOM      9  C   UNL A   1       0.727  -1.692  -0.779  0.00  0.00    -0.074 A 
ATOM     10  H   UNL A   1      -1.997  -3.091  -1.765  0.00  0.00    +0.311 HD
ENDROOT
BRANCH   2  11
ATOM     11  C   UNL A   1      -1.648  -4.117   0.814  0.00  0.00    +0.927 C 
ATOM     12  OXT UNL A   1      -1.302  -4.468   1.931  0.00  0.00    -0.814 OA
ATOM     13  O   UNL A   1      -2.642  -4.561   0.257  0.00  0.00    -0.814 OA
ENDBRANCH   2  11
BRANCH   1  14
ATOM     14  C   UNL A   1       1.079  -2.633   1.684  0.00  0.00    +0.098 C 
BRANCH  14  15
ATOM     15  C   UNL A   1       1.944  -3.914   1.717  0.00  0.00    +0.026 C 
BRANCH  15  16
ATOM     16  C   UNL A   1       3.019  -3.943   0.612  0.00  0.00    +0.260 C 
BRANCH  16  17
ATOM     17  O   UNL A   1       4.001  -2.930   0.899  0.00  0.00    -0.338 OA
BRANCH  17  18
ATOM     18  C   UNL A   1       5.014  -2.594   0.028  0.00  0.00    +0.158 C 
ATOM     19  C   UNL A   1       5.888  -1.570   0.418  0.00  0.00    -0.040 C 
ATOM     20  C   UNL A   1       6.942  -1.162  -0.421  0.00  0.00    -0.030 C 
ATOM     21  C   UNL A   1       7.870  -0.039   0.020  0.00  0.00    +0.091 C 
ATOM     22  C   UNL A   1       7.114  -1.799  -1.667  0.00  0.00    -0.036 C 
ATOM     23  C   UNL A   1       6.239  -2.824  -2.064  0.00  0.00    +0.039 C 
ATOM     24 CL   UNL A   1       8.410  -1.335  -2.755  0.00  0.00    -0.128 Cl
ATOM     25  C   UNL A   1       5.189  -3.222  -1.220  0.00  0.00    -0.026 C 
ENDBRANCH  17  18
ENDBRANCH  16  17
ENDBRANCH  15  16
ENDBRANCH  14  15
ENDBRANCH   1  14
TORSDOF 6
