REMARK  Name = lig_30.pdbqt
REMARK  7 active torsions:
REMARK  status: ('A' for Active; 'I' for Inactive)
REMARK    1  A    between atoms: C_1  and  C_10
REMARK    2  A    between atoms: CA_2  and  C_21
REMARK    3  A    between atoms: C_10  and  C_11
REMARK    4  A    between atoms: C_11  and  C_12
REMARK    5  A    between atoms: C_12  and  O_13
REMARK    6  A    between atoms: O_13  and  C_14
REMARK    7  A    between atoms: C_18  and  C_19
REMARK                            x       y       z     vdW  Elec       q    Type
REMARK                         _______ _______ _______ _____ _____    ______ ____
ROOT
ATOM      1  C   UNL A   1       2.985   2.337  -0.214  0.00  0.00    -0.193 A 
ATOM      2  CA  UNL A   1       1.665   2.809  -0.246  0.00  0.00    -0.037 A 
ATOM      3  N   UNL A   1       1.504   3.546  -1.433  0.00  0.00    -0.214 N 
ATOM      4  C   UNL A   1       2.693   3.534  -2.128  0.00  0.00    -0.042 A 
ATOM      5  C   UNL A   1       2.989   4.130  -3.360  0.00  0.00    -0.030 C 
ATOM      6  C   UNL A   1       4.294   3.967  -3.868  0.00  0.00    -0.038 C 
ATOM      7  C   UNL A   1       5.256   3.227  -3.143  0.00  0.00    -0.067 C 
ATOM      8  C   UNL A   1       4.924   2.640  -1.904  0.00  0.00    +0.013 C 
ATOM      9  C   UNL A   1       3.619   2.814  -1.422  0.00  0.00    -0.073 A 
ATOM     10  H   UNL A   1       0.637   3.992  -1.693  0.00  0.00    +0.310 HD
ENDROOT
BRANCH   2  11
ATOM     11  C   UNL A   1       0.562   2.615   0.740  0.00  0.00    +0.927 C 
ATOM     12  OXT UNL A   1       0.735   1.967   1.760  0.00  0.00    -0.814 OA
ATOM     13  O   UNL A   1      -0.507   3.139   0.458  0.00  0.00    -0.814 OA
ENDBRANCH   2  11
BRANCH   1  14
ATOM     14  C   UNL A   1       3.572   1.471   0.874  0.00  0.00    +0.099 C 
BRANCH  14  15
ATOM     15  C   UNL A   1       3.188  -0.019   0.725  0.00  0.00    +0.022 C 
BRANCH  15  16
ATOM     16  C   UNL A   1       3.462  -0.564  -0.697  0.00  0.00    +0.254 C 
BRANCH  16  17
ATOM     17  O   UNL A   1       3.599  -2.000  -0.656  0.00  0.00    -0.340 OA
BRANCH  17  18
ATOM     18  C   UNL A   1       4.697  -2.657  -0.139  0.00  0.00    +0.153 C 
ATOM     19  C   UNL A   1       4.604  -4.045   0.029  0.00  0.00    -0.037 C 
ATOM     20  C   UNL A   1       5.690  -4.775   0.539  0.00  0.00    +0.014 C 
ATOM     21  C   UNL A   1       6.879  -4.111   0.881  0.00  0.00    -0.066 C 
ATOM     22  C   UNL A   1       6.986  -2.719   0.716  0.00  0.00    -0.045 C 
ATOM     23  C   UNL A   1       8.271  -1.996   1.081  0.00  0.00    +0.069 C 
ATOM     24  C   UNL A   1       5.895  -1.996   0.202  0.00  0.00    -0.050 C 
ENDBRANCH  17  18
ENDBRANCH  16  17
ENDBRANCH  15  16
ENDBRANCH  14  15
ENDBRANCH   1  14
TORSDOF 6
