@<TRIPOS>MOLECULE
lig_61.pdbqt
43 45 1 0 0
SMALL
AMBER ff14SB


@<TRIPOS>ATOM
      1 C           2.7419    2.9932    1.5279 C.ar      1 UNL1   -0.1212
      2 C           2.8685    2.5253    2.8449 C.ar      1 UNL1   -0.3282
      3 S           1.7823    3.3151    3.9987 S.2       1 UNL1    0.2481
      4 C           1.1976    4.3555    2.7013 C.ar      1 UNL1   -0.0671
      5 C           0.2470    5.3707    2.8857 C.2       1 UNL1   -0.0920
      6 C          -0.1208    6.1671    1.7910 C.2       1 UNL1   -0.1500
      7 C           0.4787    5.9455    0.5389 C.2       1 UNL1   -0.1460
      8 C           1.4341    4.9252    0.3647 C.2       1 UNL1    0.0494
      9 CL          2.1402    4.8018   -1.2359 Cl        1 UNL1   -0.1184
     10 C           1.7849    4.1046    1.4675 C.ar      1 UNL1   -0.0270
     11 C           3.5007    2.3461    0.3894 C.3       1 UNL1   -0.0172
     12 C           4.9050    2.9700    0.1910 C.3       1 UNL1   -0.0984
     13 C           5.9828    1.9095   -0.1044 C.3       1 UNL1    0.1074
     14 O           5.6129    1.1818   -1.2940 O.2       1 UNL1   -0.3519
     15 C           5.9580   -0.1398   -1.4360 C.2       1 UNL1    0.1361
     16 C           5.7130   -1.0693   -0.4125 C.2       1 UNL1   -0.1785
     17 C           6.0600   -2.4215   -0.5837 C.2       1 UNL1   -0.0398
     18 C           5.7911   -3.4065    0.5457 C.3       1 UNL1   -0.0613
     19 C           6.6460   -2.8405   -1.7987 C.2       1 UNL1   -0.0276
     20 C           6.8754   -1.9102   -2.8363 C.2       1 UNL1   -0.0398
     21 CL          7.0829   -4.5287   -2.0254 Cl        1 UNL1   -0.1394
     22 C           6.5228   -0.5618   -2.6450 C.2       1 UNL1   -0.1785
     23 C           7.4947   -2.3437   -4.1578 C.3       1 UNL1   -0.0613
     24 C           3.7665    1.4740    3.3900 C.2       1 UNL1    0.9218
     25 O           3.6603    1.2360    4.5807 O.co2     1 UNL1   -0.8088
     26 O           4.5872    0.9080    2.6885 O.co2     1 UNL1   -0.8088
     27 HC         -0.1911    5.5396    3.8648 H         1 UNL1    0.1250
     28 HC1        -0.8531    6.9598    1.9136 H         1 UNL1    0.1190
     29 HC2         0.2105    6.5734   -0.3052 H         1 UNL1    0.1280
     30 HC3         2.9373    2.3926   -0.5459 H         1 UNL1    0.0597
     31 HC4         3.5815    1.2680    0.5642 H         1 UNL1    0.0597
     32 HC5         5.1990    3.5007    1.1056 H         1 UNL1    0.0432
     33 HC6         4.8767    3.7162   -0.6118 H         1 UNL1    0.0432
     34 HC7         6.9577    2.3905   -0.2446 H         1 UNL1    0.0842
     35 HC8         6.0641    1.2478    0.7663 H         1 UNL1    0.0842
     36 HC9         5.2427   -0.7399    0.5139 H         1 UNL1    0.1730
     37 HC10        6.6835    0.1711   -3.4275 H         1 UNL1    0.1730
     38 HC11        5.3441   -2.9110    1.4172 H         1 UNL1    0.0507
     39 HC12        6.7204   -3.8837    0.8796 H         1 UNL1    0.0507
     40 HC13        5.0996   -4.1942    0.2229 H         1 UNL1    0.0507
     41 HC14        7.6020   -1.5014   -4.8519 H         1 UNL1    0.0507
     42 HC15        8.4920   -2.7723   -4.0000 H         1 UNL1    0.0507
     43 HC16        6.8732   -3.1015   -4.6505 H         1 UNL1    0.0507
@<TRIPOS>BOND
     1    9    8 1
     2   12   11 1
     3   12   13 1
     4   11    1 1
     5    8    7 2
     6    8   10 1
     7   15   16 2
     8   15   14 1
     9   15   22 1
    10   16   17 1
    11   14   13 1
    12   17   19 2
    13   17   18 1
    14   22   20 2
    15   19   20 1
    16   19   21 1
    17   20   23 1
    18    7    6 1
    19    1   10 ar
    20    1    2 ar
    21   10    4 ar
    22    6    5 2
    23    4    5 1
    24    4    3 ar
    25    2   24 1
    26    2    3 ar
    27   26   24 ar
    28   24   25 ar
    29   27    5 1
    30   28    6 1
    31   29    7 1
    32   30   11 1
    33   31   11 1
    34   32   12 1
    35   33   12 1
    36   34   13 1
    37   35   13 1
    38   36   16 1
    39   37   22 1
    40   38   18 1
    41   39   18 1
    42   40   18 1
    43   41   23 1
    44   42   23 1
    45   43   23 1
@<TRIPOS>SUBSTRUCTURE
     1 UNL1     1 RESIDUE           4 A     UNL1     0 ROOT
