REMARK  Name = lig_56.pdbqt
REMARK  9 active torsions:
REMARK  status: ('A' for Active; 'I' for Inactive)
REMARK    1  A    between atoms: C_1  and  C_11
REMARK    2  A    between atoms: C_2  and  C_24
REMARK    3  A    between atoms: N_3  and  C_4
REMARK    4  A    between atoms: C_11  and  C_12
REMARK    5  A    between atoms: C_12  and  C_13
REMARK    6  A    between atoms: C_13  and  O_14
REMARK    7  A    between atoms: O_14  and  C_15
REMARK    8  A    between atoms: C_17  and  C_18
REMARK    9  A    between atoms: C_20  and  C_23
REMARK                            x       y       z     vdW  Elec       q    Type
REMARK                         _______ _______ _______ _____ _____    ______ ____
ROOT
ATOM      1  C   UNL A   1       2.793   3.014   0.815  0.00  0.00    -0.197 A 
ATOM      2  C   UNL A   1       2.829   4.212   1.644  0.00  0.00    +0.066 A 
ATOM      3  N   UNL A   1       2.975   3.845   3.001  0.00  0.00    -0.097 N 
ATOM      4  C   UNL A   1       3.013   4.733   4.173  0.00  0.00    +0.175 C 
ATOM      5  C   UNL A   1       3.072   2.458   3.031  0.00  0.00    -0.046 A 
ATOM      6  C   UNL A   1       3.275   1.621   4.142  0.00  0.00    -0.023 C 
ATOM      7  C   UNL A   1       3.367   0.232   3.924  0.00  0.00    -0.041 C 
ATOM      8  C   UNL A   1       3.263  -0.297   2.619  0.00  0.00    -0.064 C 
ATOM      9  C   UNL A   1       3.062   0.560   1.519  0.00  0.00    +0.009 C 
ATOM     10  C   UNL A   1       2.967   1.937   1.758  0.00  0.00    -0.069 A 
ENDROOT
BRANCH   2  11
ATOM     11  C   UNL A   1       2.742   5.633   1.161  0.00  0.00    +0.840 C 
ATOM     12  O   UNL A   1       2.642   5.872  -0.032  0.00  0.00    -0.812 OA
ATOM     13  O   UNL A   1       2.802   6.542   1.978  0.00  0.00    -0.812 OA
ENDBRANCH   2  11
BRANCH   1  14
ATOM     14  C   UNL A   1       2.652   2.991  -0.688  0.00  0.00    +0.098 C 
BRANCH  14  15
ATOM     15  C   UNL A   1       3.990   3.272  -1.409  0.00  0.00    +0.027 C 
BRANCH  15  16
ATOM     16  C   UNL A   1       5.085   2.233  -1.095  0.00  0.00    +0.256 C 
BRANCH  16  17
ATOM     17  O   UNL A   1       4.691   0.966  -1.657  0.00  0.00    -0.337 OA
BRANCH  17  18
ATOM     18  C   UNL A   1       5.398  -0.192  -1.430  0.00  0.00    +0.161 C 
ATOM     19  C   UNL A   1       4.704  -1.406  -1.500  0.00  0.00    -0.036 C 
ATOM     20  C   UNL A   1       5.367  -2.626  -1.280  0.00  0.00    -0.035 C 
ATOM     21  C   UNL A   1       4.582  -3.928  -1.343  0.00  0.00    +0.085 C 
ATOM     22  C   UNL A   1       6.751  -2.621  -0.999  0.00  0.00    -0.035 C 
ATOM     23  C   UNL A   1       7.459  -1.401  -0.935  0.00  0.00    -0.035 C 
ATOM     24 CL   UNL A   1       7.595  -4.140  -0.732  0.00  0.00    -0.128 Cl
ATOM     25  C   UNL A   1       6.775  -0.190  -1.150  0.00  0.00    -0.036 C 
ATOM     26  C   UNL A   1       8.952  -1.376  -0.636  0.00  0.00    +0.085 C 
ENDBRANCH  17  18
ENDBRANCH  16  17
ENDBRANCH  15  16
ENDBRANCH  14  15
ENDBRANCH   1  14
TORSDOF 6
