REMARK  Name = lig_46.pdbqt
REMARK  6 active torsions:
REMARK  status: ('A' for Active; 'I' for Inactive)
REMARK    1  A    between atoms: CA_1  and  C_23
REMARK    2  A    between atoms: C_9  and  C_10
REMARK    3  A    between atoms: C_10  and  C_11
REMARK    4  A    between atoms: C_11  and  C_12
REMARK    5  A    between atoms: C_12  and  O_13
REMARK    6  A    between atoms: O_13  and  C_14
REMARK                            x       y       z     vdW  Elec       q    Type
REMARK                         _______ _______ _______ _____ _____    ______ ____
ROOT
ATOM      1  CA  UNL A   1       6.223   1.169   2.037  0.00  0.00    +0.041 A 
ATOM      2  N   UNL A   1       7.338   1.145   2.874  0.00  0.00    -0.215 N 
ATOM      3  C   UNL A   1       7.425   2.430   3.366  0.00  0.00    -0.040 A 
ATOM      4  C   UNL A   1       8.371   2.953   4.256  0.00  0.00    -0.033 C 
ATOM      5  C   UNL A   1       8.252   4.311   4.614  0.00  0.00    -0.036 C 
ATOM      6  C   UNL A   1       7.206   5.102   4.085  0.00  0.00    -0.071 C 
ATOM      7  C   UNL A   1       6.267   4.547   3.190  0.00  0.00    +0.025 C 
ATOM      8  C   UNL A   1       6.399   3.195   2.844  0.00  0.00    -0.071 A 
ATOM      9  C   UNL A   1       5.627   2.414   2.002  0.00  0.00    -0.180 A 
ATOM     10  H   UNL A   1       7.918   0.337   3.044  0.00  0.00    +0.310 HD
ENDROOT
BRANCH   1  11
ATOM     11  C   UNL A   1       5.807  -0.064   1.301  0.00  0.00    +0.843 C 
ATOM     12  OXT UNL A   1       6.491  -1.060   1.487  0.00  0.00    -0.821 OA
ATOM     13  O   UNL A   1       4.863  -0.052   0.526  0.00  0.00    -0.821 OA
ENDBRANCH   1  11
BRANCH   9  14
ATOM     14  C   UNL A   1       4.394   2.875   1.243  0.00  0.00    +0.104 C 
BRANCH  14  15
ATOM     15  C   UNL A   1       4.738   3.668  -0.038  0.00  0.00    -0.025 C 
BRANCH  15  16
ATOM     16  C   UNL A   1       5.697   2.911  -0.991  0.00  0.00    +0.281 C 
BRANCH  16  17
ATOM     17  O   UNL A   1       5.321   3.170  -2.361  0.00  0.00    -0.352 OA
BRANCH  17  18
ATOM     18  C   UNL A   1       4.174   2.652  -2.929  0.00  0.00    +0.136 C 
ATOM     19  C   UNL A   1       3.652   3.306  -4.063  0.00  0.00    -0.054 C 
ATOM     20  C   UNL A   1       2.478   2.840  -4.687  0.00  0.00    +0.012 C 
ATOM     21  C   UNL A   1       1.843   1.709  -4.156  0.00  0.00    -0.144 C 
ATOM     22  C   UNL A   1       2.359   1.056  -3.046  0.00  0.00    -0.052 C 
ATOM     23  C   UNL A   1       0.583   1.042  -4.655  0.00  0.00    +0.049 C 
ATOM     24  C   UNL A   1       3.526   1.508  -2.416  0.00  0.00    +0.040 C 
ATOM     25  C   UNL A   1       1.519  -0.134  -2.656  0.00  0.00    +0.088 C 
ATOM     26  C   UNL A   1       0.523  -0.279  -3.839  0.00  0.00    -0.014 C 
ENDBRANCH  17  18
ENDBRANCH  16  17
ENDBRANCH  15  16
ENDBRANCH  14  15
ENDBRANCH   9  14
TORSDOF 6
