REMARK  Name = lig_33.pdbqt
REMARK  6 active torsions:
REMARK  status: ('A' for Active; 'I' for Inactive)
REMARK    1  A    between atoms: CA_1  and  C_21
REMARK    2  A    between atoms: C_9  and  C_10
REMARK    3  A    between atoms: C_10  and  C_11
REMARK    4  A    between atoms: C_11  and  C_12
REMARK    5  A    between atoms: C_12  and  O_13
REMARK    6  A    between atoms: O_13  and  C_14
REMARK                            x       y       z     vdW  Elec       q    Type
REMARK                         _______ _______ _______ _____ _____    ______ ____
ROOT
ATOM      1  CA  UNL A   1       4.603   2.288  -1.485  0.00  0.00    -0.048 A 
ATOM      2  N   UNL A   1       3.500   2.996  -1.995  0.00  0.00    -0.214 N 
ATOM      3  C   UNL A   1       3.877   3.627  -3.161  0.00  0.00    -0.040 A 
ATOM      4  C   UNL A   1       3.110   4.447  -3.997  0.00  0.00    -0.031 C 
ATOM      5  C   UNL A   1       3.737   4.983  -5.140  0.00  0.00    -0.035 C 
ATOM      6  C   UNL A   1       5.094   4.693  -5.415  0.00  0.00    -0.070 C 
ATOM      7  C   UNL A   1       5.839   3.863  -4.549  0.00  0.00    +0.025 C 
ATOM      8  C   UNL A   1       5.191   3.342  -3.421  0.00  0.00    -0.071 A 
ATOM      9  C   UNL A   1       5.676   2.482  -2.367  0.00  0.00    -0.181 A 
ATOM     10  H   UNL A   1       2.599   3.020  -1.540  0.00  0.00    +0.310 HD
ENDROOT
BRANCH   1  11
ATOM     11  C   UNL A   1       4.553   1.503  -0.215  0.00  0.00    +0.932 C 
ATOM     12  O   UNL A   1       3.482   1.503   0.374  0.00  0.00    -0.821 OA
ATOM     13  OXT UNL A   1       5.538   0.913   0.206  0.00  0.00    -0.821 OA
ENDBRANCH   1  11
BRANCH   9  14
ATOM     14  C   UNL A   1       7.046   1.887  -2.173  0.00  0.00    +0.106 C 
BRANCH  14  15
ATOM     15  C   UNL A   1       7.864   2.665  -1.115  0.00  0.00    -0.025 C 
BRANCH  15  16
ATOM     16  C   UNL A   1       8.703   1.764  -0.181  0.00  0.00    +0.284 C 
BRANCH  16  17
ATOM     17  O   UNL A   1       9.867   1.252  -0.870  0.00  0.00    -0.348 OA
BRANCH  17  18
ATOM     18  C   UNL A   1       9.838   0.190  -1.747  0.00  0.00    +0.139 C 
ATOM     19  C   UNL A   1      10.763   0.187  -2.801  0.00  0.00    +0.001 C 
ATOM     20  C   UNL A   1      10.801  -0.883  -3.711  0.00  0.00    +0.038 C 
ATOM     21  C   UNL A   1       9.913  -1.960  -3.559  0.00  0.00    -0.031 C 
ATOM     22 CL   UNL A   1       9.960  -3.296  -4.690  0.00  0.00    -0.137 Cl
ATOM     23  C   UNL A   1       8.990  -1.968  -2.501  0.00  0.00    +0.038 C 
ATOM     24  C   UNL A   1       8.957  -0.898  -1.589  0.00  0.00    +0.001 C 
ENDBRANCH  17  18
ENDBRANCH  16  17
ENDBRANCH  15  16
ENDBRANCH  14  15
ENDBRANCH   9  14
TORSDOF 6
