REMARK  Name = lig_43.pdbqt
REMARK  6 active torsions:
REMARK  status: ('A' for Active; 'I' for Inactive)
REMARK    1  A    between atoms: C_1  and  C_2
REMARK    2  A    between atoms: C_1  and  C_14
REMARK    3  A    between atoms: CA_10  and  C_11
REMARK    4  A    between atoms: C_14  and  C_15
REMARK    5  A    between atoms: C_15  and  O_16
REMARK    6  A    between atoms: O_16  and  C_17
REMARK                            x       y       z     vdW  Elec       q    Type
REMARK                         _______ _______ _______ _____ _____    ______ ____
ROOT
ATOM      1  C   UNL A   1       4.375   2.937  -1.741  0.00  0.00    +0.105 C 
ENDROOT
BRANCH   1   2
ATOM      2  C   UNL A   1       4.278   3.013  -0.235  0.00  0.00    -0.180 A 
ATOM      3  C   UNL A   1       4.024   4.189   0.566  0.00  0.00    -0.071 A 
ATOM      4  C   UNL A   1       3.842   5.526   0.190  0.00  0.00    +0.025 C 
ATOM      5  C   UNL A   1       3.958   3.806   1.877  0.00  0.00    -0.040 A 
ATOM      6  C   UNL A   1       3.590   6.472   1.207  0.00  0.00    -0.070 C 
ATOM      7  C   UNL A   1       3.523   6.069   2.561  0.00  0.00    -0.035 C 
ATOM      8  C   UNL A   1       3.708   4.716   2.912  0.00  0.00    -0.033 C 
ATOM      9  N   UNL A   1       4.161   2.447   1.960  0.00  0.00    -0.214 N 
ATOM     10  CA  UNL A   1       4.348   1.934   0.663  0.00  0.00    -0.048 A 
ATOM     11  H   UNL A   1       4.156   1.868   2.787  0.00  0.00    +0.310 HD
BRANCH  10  12
ATOM     12  C   UNL A   1       4.565   0.479   0.412  0.00  0.00    +0.932 C 
ATOM     13  O   UNL A   1       4.580  -0.239   1.400  0.00  0.00    -0.822 OA
ATOM     14  OXT UNL A   1       4.741   0.050  -0.716  0.00  0.00    -0.822 OA
ENDBRANCH  10  12
ENDBRANCH   1   2
BRANCH   1  15
ATOM     15  C   UNL A   1       5.728   3.463  -2.274  0.00  0.00    -0.024 C 
BRANCH  15  16
ATOM     16  C   UNL A   1       6.917   2.514  -1.978  0.00  0.00    +0.280 C 
BRANCH  16  17
ATOM     17  O   UNL A   1       7.570   2.152  -3.217  0.00  0.00    -0.351 OA
BRANCH  17  18
ATOM     18  C   UNL A   1       6.937   1.398  -4.184  0.00  0.00    +0.123 C 
ATOM     19  C   UNL A   1       7.189   1.684  -5.534  0.00  0.00    -0.009 C 
ATOM     20  C   UNL A   1       6.526   0.968  -6.548  0.00  0.00    -0.004 C 
ATOM     21  C   UNL A   1       5.606  -0.041  -6.209  0.00  0.00    -0.070 C 
ATOM     22  C   UNL A   1       4.920  -0.753  -7.210  0.00  0.00    -0.007 C 
ATOM     23  C   UNL A   1       5.364  -0.338  -4.851  0.00  0.00    -0.005 C 
ATOM     24  C   UNL A   1       3.996  -1.752  -6.857  0.00  0.00    -0.033 C 
ATOM     25  C   UNL A   1       3.754  -2.042  -5.504  0.00  0.00    -0.025 C 
ATOM     26  C   UNL A   1       4.438  -1.335  -4.501  0.00  0.00    +0.061 C 
ATOM     27  C   UNL A   1       6.038   0.372  -3.846  0.00  0.00    +0.026 C 
ENDBRANCH  17  18
ENDBRANCH  16  17
ENDBRANCH  15  16
ENDBRANCH   1  15
TORSDOF 6
