REMARK  Name = lig_63.pdbqt
REMARK  8 active torsions:
REMARK  status: ('A' for Active; 'I' for Inactive)
REMARK    1  A    between atoms: C_1  and  C_11
REMARK    2  A    between atoms: C_2  and  C_24
REMARK    3  A    between atoms: C_11  and  C_12
REMARK    4  A    between atoms: C_12  and  C_13
REMARK    5  A    between atoms: C_13  and  O_14
REMARK    6  A    between atoms: O_14  and  C_15
REMARK    7  A    between atoms: C_17  and  C_18
REMARK    8  A    between atoms: C_20  and  C_23
REMARK                            x       y       z     vdW  Elec       q    Type
REMARK                         _______ _______ _______ _____ _____    ______ ____
ROOT
ATOM      1  C   UNL A   1       3.150   3.340   2.225  0.00  0.00    -0.121 A 
ATOM      2  C   UNL A   1       3.713   3.764   3.435  0.00  0.00    -0.328 A 
ATOM      3  S   UNL A   1       2.855   5.126   4.188  0.00  0.00    +0.248 S 
ATOM      4  C   UNL A   1       1.739   5.154   2.818  0.00  0.00    -0.067 A 
ATOM      5  C   UNL A   1       0.677   6.056   2.647  0.00  0.00    +0.033 C 
ATOM      6  C   UNL A   1      -0.116   5.958   1.489  0.00  0.00    -0.150 C 
ATOM      7 CL   UNL A   1      -1.446   7.070   1.244  0.00  0.00    -0.118 Cl
ATOM      8  C   UNL A   1       0.161   4.971   0.524  0.00  0.00    -0.027 C 
ATOM      9  C   UNL A   1       1.230   4.075   0.715  0.00  0.00    +0.177 C 
ATOM     10  C   UNL A   1       2.013   4.177   1.878  0.00  0.00    -0.027 A 
ENDROOT
BRANCH   2  11
ATOM     11  C   UNL A   1       4.908   3.233   4.134  0.00  0.00    +0.922 C 
ATOM     12  O   UNL A   1       5.203   3.769   5.188  0.00  0.00    -0.809 OA
ATOM     13  O   UNL A   1       5.563   2.325   3.654  0.00  0.00    -0.809 OA
ENDBRANCH   2  11
BRANCH   1  14
ATOM     14  C   UNL A   1       3.691   2.179   1.424  0.00  0.00    +0.102 C 
BRANCH  14  15
ATOM     15  C   UNL A   1       4.906   2.596   0.565  0.00  0.00    -0.012 C 
BRANCH  15  16
ATOM     16  C   UNL A   1       5.721   1.382   0.084  0.00  0.00    +0.276 C 
BRANCH  16  17
ATOM     17  O   UNL A   1       4.914   0.617  -0.831  0.00  0.00    -0.352 OA
BRANCH  17  18
ATOM     18  C   UNL A   1       5.413  -0.542  -1.365  0.00  0.00    +0.136 C 
ATOM     19  C   UNL A   1       4.785  -1.755  -1.065  0.00  0.00    -0.006 C 
ATOM     20  C   UNL A   1       5.273  -2.961  -1.601  0.00  0.00    -0.040 C 
ATOM     21  C   UNL A   1       4.582  -4.272  -1.251  0.00  0.00    +0.091 C 
ATOM     22  C   UNL A   1       6.399  -2.934  -2.453  0.00  0.00    -0.028 C 
ATOM     23  C   UNL A   1       7.031  -1.710  -2.762  0.00  0.00    -0.040 C 
ATOM     24 CL   UNL A   1       7.018  -4.434  -3.132  0.00  0.00    -0.139 Cl
ATOM     25  C   UNL A   1       6.529  -0.515  -2.212  0.00  0.00    -0.006 C 
ATOM     26  C   UNL A   1       8.245  -1.661  -3.679  0.00  0.00    +0.091 C 
ENDBRANCH  17  18
ENDBRANCH  16  17
ENDBRANCH  15  16
ENDBRANCH  14  15
ENDBRANCH   1  14
TORSDOF 6
