REMARK  Name = lig_27.pdbqt
REMARK  6 active torsions:
REMARK  status: ('A' for Active; 'I' for Inactive)
REMARK    1  A    between atoms: CA_1  and  C_20
REMARK    2  A    between atoms: C_9  and  C_10
REMARK    3  A    between atoms: C_10  and  C_11
REMARK    4  A    between atoms: C_11  and  C_12
REMARK    5  A    between atoms: C_12  and  O_13
REMARK    6  A    between atoms: O_13  and  C_14
REMARK                            x       y       z     vdW  Elec       q    Type
REMARK                         _______ _______ _______ _____ _____    ______ ____
ROOT
ATOM      1  CA  UNL A   1       4.940   2.233   1.004  0.00  0.00    +0.041 A 
ATOM      2  N   UNL A   1       4.097   2.865   1.916  0.00  0.00    -0.215 N 
ATOM      3  C   UNL A   1       3.501   3.874   1.187  0.00  0.00    -0.040 A 
ATOM      4  C   UNL A   1       2.572   4.824   1.627  0.00  0.00    -0.033 C 
ATOM      5  C   UNL A   1       2.109   5.770   0.690  0.00  0.00    -0.036 C 
ATOM      6  C   UNL A   1       2.581   5.748  -0.643  0.00  0.00    -0.071 C 
ATOM      7  C   UNL A   1       3.519   4.779  -1.058  0.00  0.00    +0.025 C 
ATOM      8  C   UNL A   1       3.966   3.842  -0.115  0.00  0.00    -0.071 A 
ATOM      9  C   UNL A   1       4.874   2.807  -0.248  0.00  0.00    -0.180 A 
ATOM     10  H   UNL A   1       3.998   2.610   2.887  0.00  0.00    +0.310 HD
ENDROOT
BRANCH   1  11
ATOM     11  C   UNL A   1       5.795   1.077   1.418  0.00  0.00    +0.843 C 
ATOM     12  O   UNL A   1       5.700   0.727   2.587  0.00  0.00    -0.821 OA
ATOM     13  OXT UNL A   1       6.552   0.530   0.628  0.00  0.00    -0.821 OA
ENDBRANCH   1  11
BRANCH   9  14
ATOM     14  C   UNL A   1       5.633   2.402  -1.496  0.00  0.00    +0.104 C 
BRANCH  14  15
ATOM     15  C   UNL A   1       7.099   2.896  -1.448  0.00  0.00    -0.026 C 
BRANCH  15  16
ATOM     16  C   UNL A   1       8.111   1.890  -2.042  0.00  0.00    +0.282 C 
BRANCH  16  17
ATOM     17  O   UNL A   1       8.078   1.923  -3.487  0.00  0.00    -0.352 OA
BRANCH  17  18
ATOM     18  C   UNL A   1       7.082   1.342  -4.240  0.00  0.00    +0.134 C 
ATOM     19  C   UNL A   1       6.482   0.122  -3.877  0.00  0.00    -0.012 C 
ATOM     20  C   UNL A   1       5.481  -0.438  -4.689  0.00  0.00    +0.010 C 
ATOM     21  C   UNL A   1       5.090   0.212  -5.872  0.00  0.00    -0.071 C 
ATOM     22  C   UNL A   1       5.700   1.421  -6.244  0.00  0.00    +0.010 C 
ATOM     23  C   UNL A   1       6.698   1.980  -5.428  0.00  0.00    -0.012 C 
ENDBRANCH  17  18
ENDBRANCH  16  17
ENDBRANCH  15  16
ENDBRANCH  14  15
ENDBRANCH   9  14
TORSDOF 6
