@<TRIPOS>MOLECULE
lig_60.pdbqt
43 45 1 0 0
SMALL
AMBER ff14SB


@<TRIPOS>ATOM
      1 C           3.0206    3.3053   -0.3656 C.3       1 UNL1    0.0008
      2 C           4.2397    3.4608   -1.3073 C.3       1 UNL1   -0.1144
      3 C           5.2807    2.3343   -1.1496 C.3       1 UNL1    0.1254
      4 O           4.6947    1.1065   -1.6225 O.2       1 UNL1   -0.3349
      5 C           5.3003   -0.1169   -1.4545 C.2       1 UNL1    0.1601
      6 C           4.4797   -1.2498   -1.4186 C.2       1 UNL1   -0.1885
      7 C           5.0310   -2.5310   -1.2400 C.2       1 UNL1   -0.0343
      8 C           4.1102   -3.7419   -1.1827 C.3       1 UNL1   -0.0528
      9 C           6.4300   -2.6698   -1.1113 C.2       1 UNL1   -0.0336
     10 C           7.2643   -1.5321   -1.1560 C.2       1 UNL1   -0.0343
     11 CL          7.1340   -4.2671   -0.8953 Cl        1 UNL1   -0.1274
     12 C           6.6926   -0.2576   -1.3257 C.2       1 UNL1   -0.1885
     13 C           8.7759   -1.6635   -1.0210 C.3       1 UNL1   -0.0528
     14 C           3.3935    3.4276    1.0970 C.ar      1 UNL1   -0.1174
     15 C           3.5651    4.6540    1.7553 C.ar      1 UNL1   -0.0734
     16 S           3.9751    4.4750    3.4836 S.2       1 UNL1    0.0585
     17 C           3.9636    2.7212    3.2922 C.ar      1 UNL1   -0.1181
     18 C           4.2533    1.7914    4.3017 C.2       1 UNL1   -0.0930
     19 C           3.6434    2.3198    2.0087 C.ar      1 UNL1   -0.0688
     20 C           4.2217    0.4193    3.9911 C.2       1 UNL1   -0.1540
     21 C           3.8990    0.0008    2.6854 C.2       1 UNL1   -0.1510
     22 C           3.6056    0.9509    1.6890 C.2       1 UNL1   -0.1080
     23 C           3.4515    6.0254    1.1812 C.2       1 UNL1    0.9086
     24 O           3.2119    6.1927   -0.0040 O.co2     1 UNL1   -0.8138
     25 O           3.6403    6.9667    1.9342 O.co2     1 UNL1   -0.8138
     26 HC2         2.2559    4.0449   -0.6291 H         1 UNL1    0.0487
     27 HC3         2.5399    2.3385   -0.5543 H         1 UNL1    0.0487
     28 HC4         3.8925    3.4927   -2.3469 H         1 UNL1    0.0742
     29 HC5         4.7238    4.4254   -1.1123 H         1 UNL1    0.0742
     30 HC6         5.5757    2.2428   -0.0956 H         1 UNL1    0.0627
     31 HC7         6.1716    2.5797   -1.7404 H         1 UNL1    0.0627
     32 HC          3.4069   -1.1204   -1.5176 H         1 UNL1    0.1525
     33 HC1         7.3310    0.6170   -1.3611 H         1 UNL1    0.1525
     34 HC8         4.5032    2.1288    5.3031 H         1 UNL1    0.1200
     35 HC9         4.4485   -0.3161    4.7574 H         1 UNL1    0.1120
     36 HC10        3.8806   -1.0573    2.4426 H         1 UNL1    0.1120
     37 HC11        3.3629    0.6242    0.6841 H         1 UNL1    0.1210
     38 HC12        3.0569   -3.4561   -1.2918 H         1 UNL1    0.0464
     39 HC13        4.3442   -4.4518   -1.9857 H         1 UNL1    0.0464
     40 HC14        4.2112   -4.2658   -0.2238 H         1 UNL1    0.0464
     41 HC15        9.2768   -0.6902   -1.0894 H         1 UNL1    0.0464
     42 HC16        9.1864   -2.3013   -1.8138 H         1 UNL1    0.0464
     43 HC17        9.0456   -2.1067   -0.0541 H         1 UNL1    0.0464
@<TRIPOS>BOND
     1   24   23 ar
     2    1    2 1
     3    1   14 1
     4    2    3 1
     5   23   25 ar
     6   23   15 1
     7    6    5 2
     8    6    7 1
     9    5    4 1
    10    5   12 1
    11    7    9 2
    12    7    8 1
    13    4    3 1
    14   12   10 2
    15    9   10 1
    16    9   11 1
    17   10   13 1
    18   14   15 ar
    19   14   19 ar
    20   15   16 ar
    21   19   22 1
    22   19   17 ar
    23   16   17 ar
    24   22   21 2
    25   17   18 1
    26   21   20 1
    27   18   20 2
    28   26    1 1
    29   27    1 1
    30   28    2 1
    31   29    2 1
    32   30    3 1
    33   31    3 1
    34   32    6 1
    35   33   12 1
    36   34   18 1
    37   35   20 1
    38   36   21 1
    39   37   22 1
    40   38    8 1
    41   39    8 1
    42   40    8 1
    43   41   13 1
    44   42   13 1
    45   43   13 1
@<TRIPOS>SUBSTRUCTURE
     1 UNL1     1 RESIDUE           4 A     UNL1     0 ROOT
