REMARK  Name = lig_58.pdbqt
REMARK  9 active torsions:
REMARK  status: ('A' for Active; 'I' for Inactive)
REMARK    1  A    between atoms: C_1  and  C_12
REMARK    2  A    between atoms: C_2  and  C_25
REMARK    3  A    between atoms: N_3  and  C_4
REMARK    4  A    between atoms: C_12  and  C_13
REMARK    5  A    between atoms: C_13  and  C_14
REMARK    6  A    between atoms: C_14  and  O_15
REMARK    7  A    between atoms: O_15  and  C_16
REMARK    8  A    between atoms: C_18  and  C_19
REMARK    9  A    between atoms: C_21  and  C_24
REMARK                            x       y       z     vdW  Elec       q    Type
REMARK                         _______ _______ _______ _____ _____    ______ ____
ROOT
ATOM      1  C   UNL A   1       2.945   2.744   1.402  0.00  0.00    -0.180 A 
ATOM      2  C   UNL A   1       3.030   2.182   2.744  0.00  0.00    +0.060 A 
ATOM      3  N   UNL A   1       2.189   2.908   3.616  0.00  0.00    -0.093 N 
ATOM      4  C   UNL A   1       1.962   2.671   5.050  0.00  0.00    +0.181 C 
ATOM      5  C   UNL A   1       1.600   3.914   2.856  0.00  0.00    -0.042 A 
ATOM      6  C   UNL A   1       0.700   4.909   3.275  0.00  0.00    +0.001 C 
ATOM      7  C   UNL A   1       0.240   5.835   2.318  0.00  0.00    +0.012 C 
ATOM      8 CL   UNL A   1      -0.882   7.091   2.797  0.00  0.00    -0.150 Cl
ATOM      9  C   UNL A   1       0.677   5.763   0.979  0.00  0.00    -0.041 C 
ATOM     10  C   UNL A   1       1.582   4.759   0.580  0.00  0.00    +0.037 C 
ATOM     11  C   UNL A   1       2.026   3.845   1.546  0.00  0.00    -0.065 A 
ENDROOT
BRANCH   2  12
ATOM     12  C   UNL A   1       3.879   1.016   3.171  0.00  0.00    +0.839 C 
ATOM     13  O   UNL A   1       3.856   0.664   4.340  0.00  0.00    -0.814 OA
ATOM     14  O   UNL A   1       4.587   0.436   2.361  0.00  0.00    -0.814 OA
ENDBRANCH   2  12
BRANCH   1  15
ATOM     15  C   UNL A   1       3.714   2.247   0.204  0.00  0.00    +0.110 C 
BRANCH  15  16
ATOM     16  C   UNL A   1       5.152   2.822   0.155  0.00  0.00    -0.023 C 
BRANCH  16  17
ATOM     17  C   UNL A   1       6.211   1.749  -0.169  0.00  0.00    +0.274 C 
BRANCH  17  18
ATOM     18  O   UNL A   1       5.887   1.140  -1.435  0.00  0.00    -0.349 OA
BRANCH  18  19
ATOM     19  C   UNL A   1       6.187  -0.180  -1.667  0.00  0.00    +0.136 C 
ATOM     20  C   UNL A   1       5.843  -1.179  -0.742  0.00  0.00    -0.003 C 
ATOM     21  C   UNL A   1       6.146  -2.526  -1.005  0.00  0.00    -0.042 C 
ATOM     22  C   UNL A   1       5.769  -3.586   0.021  0.00  0.00    +0.089 C 
ATOM     23  C   UNL A   1       6.789  -2.871  -2.214  0.00  0.00    -0.028 C 
ATOM     24  C   UNL A   1       7.120  -1.871  -3.155  0.00  0.00    -0.042 C 
ATOM     25 CL   UNL A   1       7.172  -4.553  -2.555  0.00  0.00    -0.137 Cl
ATOM     26  C   UNL A   1       6.809  -0.528  -2.872  0.00  0.00    -0.003 C 
ATOM     27  C   UNL A   1       7.803  -2.223  -4.469  0.00  0.00    +0.089 C 
ENDBRANCH  18  19
ENDBRANCH  17  18
ENDBRANCH  16  17
ENDBRANCH  15  16
ENDBRANCH   1  15
TORSDOF 6
