REMARK  Name = lig_61.pdbqt
REMARK  8 active torsions:
REMARK  status: ('A' for Active; 'I' for Inactive)
REMARK    1  A    between atoms: C_1  and  C_11
REMARK    2  A    between atoms: C_2  and  C_24
REMARK    3  A    between atoms: C_11  and  C_12
REMARK    4  A    between atoms: C_12  and  C_13
REMARK    5  A    between atoms: C_13  and  O_14
REMARK    6  A    between atoms: O_14  and  C_15
REMARK    7  A    between atoms: C_17  and  C_18
REMARK    8  A    between atoms: C_20  and  C_23
REMARK                            x       y       z     vdW  Elec       q    Type
REMARK                         _______ _______ _______ _____ _____    ______ ____
ROOT
ATOM      1  C   UNL A   1       2.742   2.993   1.528  0.00  0.00    -0.121 A 
ATOM      2  C   UNL A   1       2.869   2.525   2.845  0.00  0.00    -0.328 A 
ATOM      3  S   UNL A   1       1.782   3.315   3.999  0.00  0.00    +0.248 S 
ATOM      4  C   UNL A   1       1.198   4.356   2.701  0.00  0.00    -0.067 A 
ATOM      5  C   UNL A   1       0.247   5.371   2.886  0.00  0.00    +0.033 C 
ATOM      6  C   UNL A   1      -0.121   6.167   1.791  0.00  0.00    -0.031 C 
ATOM      7  C   UNL A   1       0.479   5.946   0.539  0.00  0.00    -0.018 C 
ATOM      8  C   UNL A   1       1.434   4.925   0.365  0.00  0.00    +0.049 C 
ATOM      9 CL   UNL A   1       2.140   4.802  -1.236  0.00  0.00    -0.118 Cl
ATOM     10  C   UNL A   1       1.785   4.105   1.468  0.00  0.00    -0.027 A 
ENDROOT
BRANCH   2  11
ATOM     11  C   UNL A   1       3.767   1.474   3.390  0.00  0.00    +0.922 C 
ATOM     12  O   UNL A   1       3.660   1.236   4.581  0.00  0.00    -0.809 OA
ATOM     13  O   UNL A   1       4.587   0.908   2.688  0.00  0.00    -0.809 OA
ENDBRANCH   2  11
BRANCH   1  14
ATOM     14  C   UNL A   1       3.501   2.346   0.389  0.00  0.00    +0.102 C 
BRANCH  14  15
ATOM     15  C   UNL A   1       4.905   2.970   0.191  0.00  0.00    -0.012 C 
BRANCH  15  16
ATOM     16  C   UNL A   1       5.983   1.909  -0.104  0.00  0.00    +0.276 C 
BRANCH  16  17
ATOM     17  O   UNL A   1       5.613   1.182  -1.294  0.00  0.00    -0.352 OA
BRANCH  17  18
ATOM     18  C   UNL A   1       5.958  -0.140  -1.436  0.00  0.00    +0.136 C 
ATOM     19  C   UNL A   1       5.713  -1.069  -0.412  0.00  0.00    -0.006 C 
ATOM     20  C   UNL A   1       6.060  -2.421  -0.584  0.00  0.00    -0.040 C 
ATOM     21  C   UNL A   1       5.791  -3.406   0.546  0.00  0.00    +0.091 C 
ATOM     22  C   UNL A   1       6.646  -2.841  -1.799  0.00  0.00    -0.028 C 
ATOM     23  C   UNL A   1       6.875  -1.910  -2.836  0.00  0.00    -0.040 C 
ATOM     24 CL   UNL A   1       7.083  -4.529  -2.025  0.00  0.00    -0.139 Cl
ATOM     25  C   UNL A   1       6.523  -0.562  -2.645  0.00  0.00    -0.006 C 
ATOM     26  C   UNL A   1       7.495  -2.344  -4.158  0.00  0.00    +0.091 C 
ENDBRANCH  17  18
ENDBRANCH  16  17
ENDBRANCH  15  16
ENDBRANCH  14  15
ENDBRANCH   1  14
TORSDOF 6
