@<TRIPOS>MOLECULE
lig_56.pdbqt
47 49 1 0 0
SMALL
AMBER ff14SB


@<TRIPOS>ATOM
      1 C           2.7927    3.0140    0.8151 C.ar      1 UNL1   -0.1972
      2 C           2.8291    4.2119    1.6441 C.ar      1 UNL1    0.0663
      3 N           2.9753    3.8453    3.0007 N.ar      1 UNL1   -0.0974
      4 C           3.0131    4.7327    4.1729 C.3       1 UNL1    0.0156
      5 C           3.0723    2.4579    3.0309 C.ar      1 UNL1   -0.0463
      6 C           3.2748    1.6215    4.1421 C.2       1 UNL1   -0.1410
      7 C           3.3668    0.2317    3.9243 C.2       1 UNL1   -0.1480
      8 C           3.2628   -0.2966    2.6193 C.2       1 UNL1   -0.1720
      9 C           3.0615    0.5597    1.5193 C.2       1 UNL1   -0.1070
     10 C           2.9667    1.9372    1.7584 C.ar      1 UNL1   -0.0690
     11 C           2.6522    2.9912   -0.6876 C.3       1 UNL1    0.0188
     12 C           3.9896    3.2723   -1.4094 C.3       1 UNL1   -0.1164
     13 C           5.0846    2.2327   -1.0946 C.3       1 UNL1    0.1284
     14 O           4.6912    0.9664   -1.6571 O.2       1 UNL1   -0.3369
     15 C           5.3982   -0.1917   -1.4302 C.2       1 UNL1    0.1611
     16 C           4.7043   -1.4056   -1.5003 C.2       1 UNL1   -0.1890
     17 C           5.3674   -2.6259   -1.2797 C.2       1 UNL1   -0.0348
     18 C           4.5817   -3.9284   -1.3433 C.3       1 UNL1   -0.0528
     19 C           6.7507   -2.6211   -0.9992 C.2       1 UNL1   -0.0346
     20 C           7.4588   -1.4013   -0.9346 C.2       1 UNL1   -0.0348
     21 CL          7.5952   -4.1401   -0.7318 Cl        1 UNL1   -0.1284
     22 C           6.7753   -0.1903   -1.1497 C.2       1 UNL1   -0.1890
     23 C           8.9518   -1.3756   -0.6357 C.3       1 UNL1   -0.0528
     24 C           2.7418    5.6335    1.1615 C.2       1 UNL1    0.8403
     25 O           2.6424    5.8723   -0.0317 O.co2     1 UNL1   -0.8118
     26 O           2.8022    6.5416    1.9776 O.co2     1 UNL1   -0.8118
     27 HC          3.3660    2.0244    5.1443 H         1 UNL1    0.1180
     28 HC1         3.5257   -0.4364    4.7653 H         1 UNL1    0.1070
     29 HC2         3.3450   -1.3675    2.4591 H         1 UNL1    0.1080
     30 HC3         2.9910    0.1675    0.5099 H         1 UNL1    0.1160
     31 HC4         2.2714    2.0127   -1.0046 H         1 UNL1    0.0397
     32 HC5         1.8959    3.7152   -1.0139 H         1 UNL1    0.0397
     33 HC6         4.3494    4.2674   -1.1200 H         1 UNL1    0.0717
     34 HC7         3.8179    3.3056   -2.4915 H         1 UNL1    0.0717
     35 HC8         6.0308    2.5657   -1.5377 H         1 UNL1    0.0637
     36 HC9         5.2201    2.1469   -0.0082 H         1 UNL1    0.0637
     37 HC10        3.6411   -1.3860   -1.7160 H         1 UNL1    0.1535
     38 HC11        7.3175    0.7466   -1.1035 H         1 UNL1    0.1535
     39 HC12        3.0408    4.1583    5.1035 H         1 UNL1    0.0530
     40 HC13        2.1185    5.3676    4.1740 H         1 UNL1    0.0530
     41 HC14        3.9027    5.3717    4.1138 H         1 UNL1    0.0530
     42 HC15        3.5205   -3.7524   -1.5579 H         1 UNL1    0.0460
     43 HC16        4.9744   -4.5852   -2.1291 H         1 UNL1    0.0460
     44 HC17        4.6399   -4.4670   -0.3892 H         1 UNL1    0.0460
     45 HC18        9.3471   -0.3526   -0.6252 H         1 UNL1    0.0460
     46 HC19        9.5122   -1.9386   -1.3921 H         1 UNL1    0.0460
     47 HC20        9.1623   -1.8209    0.3446 H         1 UNL1    0.0460
@<TRIPOS>BOND
     1   25   24 ar
     2   11   12 1
     3   11    1 1
     4   12   13 1
     5   24   26 ar
     6   24    2 1
     7   16   15 2
     8   16   17 1
     9   15   14 1
    10   15   22 1
    11   17   19 2
    12   17   18 1
    13   14   13 1
    14   19   20 1
    15   19   21 1
    16   22   20 2
    17   20   23 1
    18    1    2 ar
    19    1   10 ar
    20    2    3 ar
    21   10    9 1
    22   10    5 ar
    23    3    4 1
    24    3    5 ar
    25    9    8 2
    26    5    6 1
    27    8    7 1
    28    6    7 2
    29   27    6 1
    30   28    7 1
    31   29    8 1
    32   30    9 1
    33   31   11 1
    34   32   11 1
    35   33   12 1
    36   34   12 1
    37   35   13 1
    38   36   13 1
    39   37   16 1
    40   38   22 1
    41   39    4 1
    42   40    4 1
    43   41    4 1
    44   42   18 1
    45   43   18 1
    46   44   18 1
    47   45   23 1
    48   46   23 1
    49   47   23 1
@<TRIPOS>SUBSTRUCTURE
     1 UNL1     1 RESIDUE           4 A     UNL1     0 ROOT
