@<TRIPOS>MOLECULE
lig_32.pdbqt
41 43 1 0 0
SMALL
AMBER ff14SB


@<TRIPOS>ATOM
      1 C           0.5822   -2.0398    0.4318 C.ar      1 UNL1   -0.1932
      2 CA         -0.4995   -2.8070   -0.0244 C.ar      1 UNL1   -0.0372
      3 N          -0.8168   -2.3676   -1.3229 N.ar      1 UNL1   -0.2144
      4 C           0.0605   -1.3678   -1.6809 C.ar      1 UNL1   -0.0433
      5 C           0.1419   -0.6695   -2.8918 C.2       1 UNL1   -0.1470
      6 C           1.1566    0.3019   -3.0185 C.2       1 UNL1   -0.1450
      7 C           2.0510    0.5453   -1.9505 C.2       1 UNL1   -0.1750
      8 C           1.9393   -0.1771   -0.7438 C.2       1 UNL1   -0.1030
      9 C           0.9221   -1.1355   -0.6430 C.ar      1 UNL1   -0.0720
     10 C           1.2690   -2.2111    1.7652 C.3       1 UNL1    0.0148
     11 C           2.2539   -3.4028    1.7696 C.3       1 UNL1   -0.1134
     12 C           3.3706   -3.2711    0.7135 C.3       1 UNL1    0.1284
     13 O           4.2537   -2.2017    1.1041 O.2       1 UNL1   -0.3389
     14 C           5.2972   -1.8143    0.2982 C.2       1 UNL1    0.1481
     15 C           5.1345   -1.6378   -1.0869 C.2       1 UNL1   -0.1865
     16 C           6.2212   -1.2252   -1.8764 C.2       1 UNL1   -0.0985
     17 C           7.4750   -0.9827   -1.2861 C.2       1 UNL1   -0.1373
     18 C           8.6492   -0.5380   -2.1428 C.3       1 UNL1   -0.0378
     19 C           7.6315   -1.1519    0.1018 C.2       1 UNL1   -0.0985
     20 C           6.5423   -1.5610    0.8901 C.2       1 UNL1   -0.1865
     21 C          -1.2332   -3.9159    0.6540 C.2       1 UNL1    0.9268
     22 OXT        -0.9174   -4.2912    1.7717 O.co2     1 UNL1   -0.8148
     23 O          -2.1393   -4.4295    0.0124 O.co2     1 UNL1   -0.8148
     24 H          -1.5609   -2.7672   -1.8748 H         1 UNL1    0.3097
     25 HC         -0.5490   -0.8728   -3.7034 H         1 UNL1    0.1170
     26 HC1         1.2535    0.8634   -3.9427 H         1 UNL1    0.1070
     27 HC2         2.8335    1.2903   -2.0583 H         1 UNL1    0.1080
     28 HC3         2.6275   -0.0084    0.0791 H         1 UNL1    0.1170
     29 HC4         1.8125   -1.2936    2.0218 H         1 UNL1    0.0417
     30 HC5         0.5260   -2.3469    2.5608 H         1 UNL1    0.0417
     31 HC6         1.6942   -4.3272    1.5810 H         1 UNL1    0.0682
     32 HC7         2.7001   -3.5051    2.7657 H         1 UNL1    0.0682
     33 HC8         3.9337   -4.2109    0.6582 H         1 UNL1    0.0617
     34 HC9         2.9241   -3.0833   -0.2703 H         1 UNL1    0.0617
     35 HC10        4.1646   -1.7973   -1.5485 H         1 UNL1    0.1475
     36 HC11        6.0844   -1.0874   -2.9455 H         1 UNL1    0.1220
     37 HC12        8.5936   -0.9632    0.5694 H         1 UNL1    0.1220
     38 HC13        6.6550   -1.6868    1.9617 H         1 UNL1    0.1475
     39 HC14        9.1763   -1.4049   -2.5599 H         1 UNL1    0.0327
     40 HC15        9.3710    0.0473   -1.5595 H         1 UNL1    0.0327
     41 HC16        8.3154    0.0884   -2.9796 H         1 UNL1    0.0327
@<TRIPOS>BOND
     1    6    5 1
     2    6    7 2
     3    5    4 2
     4    7    8 1
     5    4    3 ar
     6    4    9 ar
     7    8    9 2
     8    3    2 ar
     9    9    1 ar
    10    2    1 ar
    11    2   21 1
    12    1   10 1
    13   18   17 1
    14   12   13 1
    15   12   11 1
    16   16   15 1
    17   16   17 2
    18   15   14 2
    19   17   19 1
    20   13   14 1
    21   14   20 1
    22   23   21 ar
    23   19   20 2
    24   21   22 ar
    25   11   10 1
    26    3   24 1
    27   25    5 1
    28   26    6 1
    29   27    7 1
    30   28    8 1
    31   29   10 1
    32   30   10 1
    33   31   11 1
    34   32   11 1
    35   33   12 1
    36   34   12 1
    37   35   15 1
    38   36   16 1
    39   37   19 1
    40   38   20 1
    41   39   18 1
    42   40   18 1
    43   41   18 1
@<TRIPOS>SUBSTRUCTURE
     1 UNL1     2 RESIDUE           4 A     UNL1     0 ROOT
