@<TRIPOS>MOLECULE
lig_50.pdbqt
44 46 1 0 0
SMALL
AMBER ff14SB


@<TRIPOS>ATOM
      1 C           2.5623    2.9546    1.2836 C.ar      1 UNL1   -0.1642
      2 CA          2.6375    2.3935    2.5682 C.ar      1 UNL1   -0.0502
      3 N           1.8646    3.1878    3.4288 N.ar      1 UNL1   -0.2094
      4 C           1.3406    4.2392    2.7140 C.ar      1 UNL1   -0.0363
      5 C           0.5363    5.2789    3.1947 C.2       1 UNL1   -0.1470
      6 C           0.1326    6.2706    2.2811 C.2       1 UNL1   -0.1370
      7 C           0.5466    6.2018    0.9325 C.2       1 UNL1   -0.1730
      8 C           1.3605    5.1430    0.4773 C.2       1 UNL1    0.0594
      9 CL          1.8617    5.1434   -1.2025 Cl        1 UNL1   -0.1274
     10 C           1.7428    4.1511    1.4040 C.ar      1 UNL1   -0.0630
     11 C           3.2304    2.3655    0.0624 C.3       1 UNL1   -0.0102
     12 C           4.6500    2.9432   -0.1670 C.3       1 UNL1   -0.0954
     13 C           5.7302    1.8461   -0.2386 C.3       1 UNL1    0.1114
     14 O           5.4842    1.0331   -1.4035 O.2       1 UNL1   -0.3479
     15 C           5.9730   -0.2478   -1.4690 C.2       1 UNL1    0.1431
     16 C           5.7334   -1.1670   -0.4363 C.2       1 UNL1   -0.1815
     17 C           6.2273   -2.4809   -0.5261 C.2       1 UNL1   -0.0428
     18 C           5.9561   -3.4558    0.6115 C.3       1 UNL1   -0.0533
     19 C           6.9580   -2.8719   -1.6700 C.2       1 UNL1   -0.0296
     20 C           7.1847   -1.9529   -2.7184 C.2       1 UNL1   -0.0428
     21 CL          7.5793   -4.5123   -1.7950 Cl        1 UNL1   -0.1384
     22 C           6.6830   -0.6430   -2.6086 C.2       1 UNL1   -0.1815
     23 C           7.9582   -2.3582   -3.9655 C.3       1 UNL1   -0.0533
     24 C           3.3723    1.1882    3.0551 C.2       1 UNL1    0.9328
     25 OXT         3.2514    0.9394    4.2460 O.co2     1 UNL1   -0.8183
     26 O           4.0704    0.5192    2.3107 O.co2     1 UNL1   -0.8183
     27 H           1.7626    2.9923    4.4140 H         1 UNL1    0.3137
     28 HC          0.2380    5.3191    4.2374 H         1 UNL1    0.1230
     29 HC1        -0.4913    7.0939    2.6156 H         1 UNL1    0.1150
     30 HC2         0.2412    6.9749    0.2348 H         1 UNL1    0.1250
     31 HC3         2.6189    2.5485   -0.8270 H         1 UNL1    0.0607
     32 HC4         3.2637    1.2723    0.1349 H         1 UNL1    0.0607
     33 HC5         4.9057    3.6305    0.6495 H         1 UNL1    0.0392
     34 HC6         4.6644    3.5367   -1.0895 H         1 UNL1    0.0392
     35 HC7         6.7252    2.3013   -0.3059 H         1 UNL1    0.0832
     36 HC8         5.6965    1.2538    0.6829 H         1 UNL1    0.0832
     37 HC9         5.1504   -0.8613    0.4317 H         1 UNL1    0.1760
     38 HC10        6.8380    0.0794   -3.4017 H         1 UNL1    0.1760
     39 HC11        5.3867   -2.9831    1.4224 H         1 UNL1    0.0462
     40 HC12        5.3762   -4.3175    0.2598 H         1 UNL1    0.0462
     41 HC13        6.8938   -3.8278    1.0416 H         1 UNL1    0.0462
     42 HC14        8.0451   -1.5286   -4.6773 H         1 UNL1    0.0462
     43 HC15        8.9745   -2.6810   -3.7074 H         1 UNL1    0.0462
     44 HC16        7.4596   -3.1873   -4.4825 H         1 UNL1    0.0462
@<TRIPOS>BOND
     1    9    8 1
     2   11   12 1
     3   11    1 1
     4   12   13 1
     5    8    7 2
     6    8   10 1
     7   15   16 2
     8   15   14 1
     9   15   22 1
    10   16   17 1
    11   14   13 1
    12   17   19 2
    13   17   18 1
    14   22   20 2
    15   19   20 1
    16   19   21 1
    17   20   23 1
    18    7    6 1
    19    1   10 ar
    20    1    2 ar
    21   10    4 ar
    22    6    5 2
    23    2    3 ar
    24    2   24 1
    25    4    5 1
    26    4    3 ar
    27   26   24 ar
    28   24   25 ar
    29    3   27 1
    30   28    5 1
    31   29    6 1
    32   30    7 1
    33   31   11 1
    34   32   11 1
    35   33   12 1
    36   34   12 1
    37   35   13 1
    38   36   13 1
    39   37   16 1
    40   38   22 1
    41   39   18 1
    42   40   18 1
    43   41   18 1
    44   42   23 1
    45   43   23 1
    46   44   23 1
@<TRIPOS>SUBSTRUCTURE
     1 UNL1     2 RESIDUE           4 A     UNL1     0 ROOT
