@<TRIPOS>MOLECULE
lig_46.pdbqt
45 48 1 0 0
SMALL
AMBER ff14SB


@<TRIPOS>ATOM
      1 CA          6.2233    1.1690    2.0372 C.ar      1 UNL1    0.0413
      2 N           7.3378    1.1448    2.8742 N.ar      1 UNL1   -0.2154
      3 C           7.4247    2.4300    3.3664 C.ar      1 UNL1   -0.0403
      4 C           8.3708    2.9532    4.2558 C.2       1 UNL1   -0.1500
      5 C           8.2515    4.3112    4.6141 C.2       1 UNL1   -0.1430
      6 C           7.2063    5.1024    4.0851 C.2       1 UNL1   -0.1780
      7 C           6.2671    4.5474    3.1898 C.2       1 UNL1   -0.0960
      8 C           6.3994    3.1950    2.8439 C.ar      1 UNL1   -0.0710
      9 C           5.6272    2.4143    2.0016 C.ar      1 UNL1   -0.1802
     10 C           4.3940    2.8751    1.2428 C.3       1 UNL1   -0.0042
     11 C           4.7379    3.6680   -0.0378 C.3       1 UNL1   -0.0954
     12 C           5.6969    2.9112   -0.9907 C.3       1 UNL1    0.1114
     13 O           5.3213    3.1702   -2.3612 O.2       1 UNL1   -0.3519
     14 C           4.1744    2.6522   -2.9288 C.2       1 UNL1    0.1361
     15 C           3.6522    3.3058   -4.0629 C.2       1 UNL1   -0.1850
     16 C           2.4781    2.8404   -4.6871 C.2       1 UNL1   -0.1030
     17 C           1.8434    1.7086   -4.1564 C.2       1 UNL1   -0.1443
     18 C           2.3590    1.0561   -3.0465 C.2       1 UNL1   -0.0523
     19 C           0.5833    1.0417   -4.6546 C.3       1 UNL1   -0.0231
     20 C           3.5257    1.5075   -2.4155 C.2       1 UNL1   -0.1710
     21 C           1.5189   -0.1342   -2.6559 C.3       1 UNL1   -0.0361
     22 C           0.5231   -0.2793   -3.8391 C.3       1 UNL1   -0.0784
     23 C           5.8068   -0.0644    1.3014 C.2       1 UNL1    0.8433
     24 OXT         6.4912   -1.0603    1.4871 O.co2     1 UNL1   -0.8208
     25 O           4.8633   -0.0519    0.5263 O.co2     1 UNL1   -0.8208
     26 H           7.9181    0.3369    3.0437 H         1 UNL1    0.3097
     27 HC          9.1675    2.3333    4.6546 H         1 UNL1    0.1170
     28 HC1         8.9678    4.7524    5.3009 H         1 UNL1    0.1070
     29 HC2         7.1240    6.1467    4.3695 H         1 UNL1    0.1070
     30 HC3         5.4639    5.1504    2.7796 H         1 UNL1    0.1210
     31 HC4         3.7453    2.0308    0.9865 H         1 UNL1    0.0542
     32 HC5         3.7852    3.5110    1.8967 H         1 UNL1    0.0542
     33 HC6         3.8001    3.9135   -0.5515 H         1 UNL1    0.0352
     34 HC7         5.1988    4.6246    0.2375 H         1 UNL1    0.0352
     35 HC8         5.6887    1.8347   -0.7928 H         1 UNL1    0.0847
     36 HC9         6.7219    3.2576   -0.8105 H         1 UNL1    0.0847
     37 HC10        4.1630    4.1812   -4.4489 H         1 UNL1    0.1310
     38 HC11        2.0723    3.3472   -5.5572 H         1 UNL1    0.1150
     39 HC12        0.6182    0.8434   -5.7332 H         1 UNL1    0.0362
     40 HC13       -0.2921    1.6677   -4.4404 H         1 UNL1    0.0362
     41 HC14        3.9104    0.9700   -1.5515 H         1 UNL1    0.2110
     42 HC15        2.1252   -1.0396   -2.5244 H         1 UNL1    0.0622
     43 HC16        0.9860    0.0674   -1.7183 H         1 UNL1    0.0622
     44 HC17       -0.4943   -0.4936   -3.4882 H         1 UNL1    0.0322
     45 HC18        0.8427   -1.1127   -4.4779 H         1 UNL1    0.0322
@<TRIPOS>BOND
     1   22   21 1
     2   22   19 1
     3   21   18 1
     4   15   14 2
     5   15   16 1
     6   20   18 2
     7   20   14 1
     8   18   17 1
     9   14   13 1
    10   13   12 1
    11   17   16 2
    12   17   19 1
    13   12   11 1
    14   11   10 1
    15   10    9 1
    16   25   23 ar
    17   23   24 ar
    18   23    1 1
    19    9    1 ar
    20    9    8 ar
    21    1    2 ar
    22    8    7 1
    23    8    3 ar
    24    7    6 2
    25    2    3 ar
    26    3    4 1
    27    6    5 1
    28    4    5 2
    29    2   26 1
    30   27    4 1
    31   28    5 1
    32   29    6 1
    33   30    7 1
    34   31   10 1
    35   32   10 1
    36   33   11 1
    37   34   11 1
    38   35   12 1
    39   36   12 1
    40   37   15 1
    41   38   16 1
    42   39   19 1
    43   40   19 1
    44   41   20 1
    45   42   21 1
    46   43   21 1
    47   44   22 1
    48   45   22 1
@<TRIPOS>SUBSTRUCTURE
     1 UNL1     1 RESIDUE           4 A     UNL1     0 ROOT
