@<TRIPOS>MOLECULE
lig_48.pdbqt
42 45 1 0 0
SMALL
AMBER ff14SB


@<TRIPOS>ATOM
      1 C           5.3027    2.5756   -1.2057 C.3       1 UNL1   -0.0032
      2 C           5.0538    2.6827    0.2765 C.ar      1 UNL1   -0.1802
      3 C           4.3756    3.6776    1.0775 C.ar      1 UNL1   -0.0710
      4 C           3.7295    4.8569    0.6848 C.2       1 UNL1   -0.0950
      5 C           4.4423    3.3095    2.4059 C.ar      1 UNL1   -0.0403
      6 C           3.1446    5.6603    1.6862 C.2       1 UNL1   -0.1780
      7 C           3.2148    5.2785    3.0455 C.2       1 UNL1   -0.1430
      8 C           3.8713    4.0883    3.4201 C.2       1 UNL1   -0.1500
      9 N           5.1310    2.1191    2.5435 N.ar      1 UNL1   -0.2154
     10 CA          5.5191    1.7201    1.2607 C.ar      1 UNL1    0.0423
     11 C           6.3067    0.4673    1.0534 C.2       1 UNL1    0.8443
     12 O           6.5839   -0.1690    2.0605 O.co2     1 UNL1   -0.8223
     13 OXT         6.6626    0.1165   -0.0615 O.co2     1 UNL1   -0.8223
     14 C           6.6978    3.1200   -1.6025 C.3       1 UNL1   -0.0954
     15 C           7.5380    2.1417   -2.4565 C.3       1 UNL1    0.1174
     16 O           7.1699    2.2022   -3.8517 O.3       1 UNL1   -0.3499
     17 C           5.9366    1.8442   -4.3549 C.3       1 UNL1    0.1941
     18 C           5.3188    2.7359   -5.2539 C.3       1 UNL1   -0.2140
     19 C           4.0745    2.4321   -5.8492 C.3       1 UNL1   -0.0930
     20 C           3.4304    1.2136   -5.5632 C.3       1 UNL1   -0.2010
     21 C           4.0643    0.3311   -4.6821 C.2       1 UNL1   -0.0073
     22 N           3.6052   -0.9066   -4.2689 N.pl3     1 UNL1   -0.2534
     23 C           5.2847    0.6218   -4.0883 C.2       1 UNL1   -0.1320
     24 C           4.5931   -1.3345   -3.3916 C.2       1 UNL1    0.0072
     25 C           5.6173   -0.4457   -3.2735 C.2       1 UNL1   -0.1500
     26 H           5.3507    1.6020    3.3813 H         1 UNL1    0.3097
     27 H           2.7267   -1.3484   -4.4834 H         1 UNL1    0.2767
     28 HC2         4.5310    3.1258   -1.7574 H         1 UNL1    0.0552
     29 HC3         5.1863    1.5321   -1.5096 H         1 UNL1    0.0552
     30 HC          3.6839    5.1393   -0.3620 H         1 UNL1    0.1210
     31 HC1         2.6372    6.5792    1.4091 H         1 UNL1    0.1070
     32 HC4         2.7608    5.9059    3.8066 H         1 UNL1    0.1070
     33 HC5         3.9337    3.7843    4.4601 H         1 UNL1    0.1170
     34 HC6         6.5913    4.0789   -2.1248 H         1 UNL1    0.0347
     35 HC7         7.2681    3.3329   -0.6891 H         1 UNL1    0.0347
     36 HC8         8.5893    2.4401   -2.3716 H         1 UNL1    0.0857
     37 HC9         7.4743    1.1278   -2.0581 H         1 UNL1    0.0857
     38 HC10        5.8134    3.6735   -5.4827 H         1 UNL1    0.1350
     39 HC11        3.6140    3.1406   -6.5315 H         1 UNL1    0.1140
     40 HC12        2.4734    0.9667   -6.0113 H         1 UNL1    0.1180
     41 HC13        4.5238   -2.2667   -2.8468 H         1 UNL1    0.0328
     42 HC14        6.4515   -0.5826   -2.5862 H         1 UNL1    0.2240
@<TRIPOS>BOND
     1   20   19 1
     2   20   21 1
     3   19   18 1
     4   22   21 1
     5   22   24 1
     6   21   23 2
     7   18   17 1
     8   24   25 2
     9   23   17 1
    10   23   25 1
    11   17   16 1
    12   16   15 1
    13   14    1 1
    14   14   15 1
    15    1    2 1
    16    4    3 2
    17    4    6 1
    18    2    3 ar
    19    2   10 ar
    20    3    5 ar
    21   12   11 ar
    22   11   10 1
    23   11   13 ar
    24   10    9 ar
    25    6    7 2
    26    5    9 ar
    27    5    8 2
    28    7    8 1
    29    9   26 1
    30   22   27 1
    31   28    1 1
    32   29    1 1
    33   30    4 1
    34   31    6 1
    35   32    7 1
    36   33    8 1
    37   34   14 1
    38   35   14 1
    39   36   15 1
    40   37   15 1
    41   38   18 1
    42   39   19 1
    43   40   20 1
    44   41   24 1
    45   42   25 1
@<TRIPOS>SUBSTRUCTURE
     1 UNL1    10 RESIDUE           4 A     UNL1     0 ROOT
