@<TRIPOS>MOLECULE
lig_35.pdbqt
41 43 1 0 0
SMALL
AMBER ff14SB


@<TRIPOS>ATOM
      1 C           0.3450   -2.4746    0.3744 C.ar      1 UNL1   -0.1952
      2 CA         -0.8398   -3.1395    0.0269 C.ar      1 UNL1   -0.0372
      3 N          -1.1830   -2.7452   -1.2794 N.ar      1 UNL1   -0.2144
      4 C          -0.2174   -1.8840   -1.7520 C.ar      1 UNL1   -0.0423
      5 C          -0.1243   -1.2847   -3.0140 C.2       1 UNL1   -0.1470
      6 C           0.9923   -0.4602   -3.2644 C.2       1 UNL1   -0.1450
      7 C           1.9739   -0.2627   -2.2657 C.2       1 UNL1   -0.1740
      8 C           1.8481   -0.8830   -1.0050 C.2       1 UNL1   -0.1040
      9 C           0.7265   -1.6922   -0.7793 C.ar      1 UNL1   -0.0740
     10 C           1.0785   -2.6332    1.6839 C.3       1 UNL1    0.0158
     11 C           1.9437   -3.9137    1.7171 C.3       1 UNL1   -0.1154
     12 C           3.0191   -3.9435    0.6118 C.3       1 UNL1    0.1284
     13 O           4.0014   -2.9296    0.8993 O.2       1 UNL1   -0.3379
     14 C           5.0142   -2.5943    0.0284 C.2       1 UNL1    0.1581
     15 C           5.8882   -1.5698    0.4180 C.2       1 UNL1   -0.2020
     16 C           6.9418   -1.1617   -0.4212 C.2       1 UNL1   -0.0303
     17 C           7.8697   -0.0394    0.0204 C.3       1 UNL1   -0.0548
     18 C           7.1143   -1.7994   -1.6670 C.2       1 UNL1   -0.0356
     19 C           6.2389   -2.8235   -2.0636 C.2       1 UNL1   -0.0960
     20 CL          8.4096   -1.3353   -2.7550 Cl        1 UNL1   -0.1284
     21 C           5.1887   -3.2220   -1.2196 C.2       1 UNL1   -0.1720
     22 C          -1.6478   -4.1173    0.8138 C.2       1 UNL1    0.9268
     23 OXT        -1.3017   -4.4675    1.9307 O.co2     1 UNL1   -0.8138
     24 O          -2.6423   -4.5613    0.2572 O.co2     1 UNL1   -0.8138
     25 H          -1.9970   -3.0910   -1.7649 H         1 UNL1    0.3107
     26 HC         -0.8814   -1.4544   -3.7724 H         1 UNL1    0.1180
     27 HC1         1.1023    0.0205   -4.2317 H         1 UNL1    0.1080
     28 HC2         2.8357    0.3656   -2.4700 H         1 UNL1    0.1080
     29 HC3         2.6011   -0.7484   -0.2347 H         1 UNL1    0.1150
     30 HC4         1.7182   -1.7591    1.8573 H         1 UNL1    0.0412
     31 HC5         0.3677   -2.6486    2.5194 H         1 UNL1    0.0412
     32 HC6         2.4220   -4.0066    2.6990 H         1 UNL1    0.0707
     33 HC7         1.2892   -4.7869    1.6027 H         1 UNL1    0.0707
     34 HC8         3.4968   -4.9308    0.5913 H         1 UNL1    0.0657
     35 HC9         2.5482   -3.7654   -0.3638 H         1 UNL1    0.0657
     36 HC10        5.7301   -1.0904    1.3783 H         1 UNL1    0.1620
     37 HC11        6.3717   -3.3026   -3.0294 H         1 UNL1    0.1350
     38 HC12        4.5140   -4.0051   -1.5469 H         1 UNL1    0.1460
     39 HC13        8.9073   -0.3901    0.0790 H         1 UNL1    0.0487
     40 HC14        7.5941    0.3504    1.0078 H         1 UNL1    0.0487
     41 HC15        7.8337    0.7976   -0.6878 H         1 UNL1    0.0487
@<TRIPOS>BOND
     1    6    5 1
     2    6    7 2
     3    5    4 2
     4    7    8 1
     5    4    3 ar
     6    4    9 ar
     7    8    9 2
     8    3    2 ar
     9    9    1 ar
    10    2    1 ar
    11    2   22 1
    12    1   10 1
    13   20   18 1
    14   12   13 1
    15   12   11 1
    16   19   21 1
    17   19   18 2
    18   21   14 2
    19   13   14 1
    20   24   22 ar
    21   17   16 1
    22   18   16 1
    23   14   15 1
    24   16   15 2
    25   22   23 ar
    26   11   10 1
    27    3   25 1
    28   26    5 1
    29   27    6 1
    30   28    7 1
    31   29    8 1
    32   30   10 1
    33   31   10 1
    34   32   11 1
    35   33   11 1
    36   34   12 1
    37   35   12 1
    38   36   15 1
    39   37   19 1
    40   38   21 1
    41   39   17 1
    42   40   17 1
    43   41   17 1
@<TRIPOS>SUBSTRUCTURE
     1 UNL1     2 RESIDUE           4 A     UNL1     0 ROOT
