@<TRIPOS>MOLECULE
lig_58.pdbqt
47 49 1 0 0
SMALL
AMBER ff14SB


@<TRIPOS>ATOM
      1 C           2.9449    2.7442    1.4018 C.ar      1 UNL1   -0.1802
      2 C           3.0302    2.1822    2.7436 C.ar      1 UNL1    0.0603
      3 N           2.1891    2.9084    3.6160 N.ar      1 UNL1   -0.0934
      4 C           1.9623    2.6707    5.0499 C.3       1 UNL1    0.0136
      5 C           1.6004    3.9143    2.8564 C.ar      1 UNL1   -0.0423
      6 C           0.6999    4.9093    3.2745 C.2       1 UNL1   -0.1350
      7 C           0.2399    5.8355    2.3184 C.2       1 UNL1    0.0124
      8 CL         -0.8822    7.0912    2.7970 Cl        1 UNL1   -0.1504
      9 C           0.6772    5.7628    0.9789 C.2       1 UNL1   -0.1670
     10 C           1.5823    4.7590    0.5801 C.2       1 UNL1   -0.0910
     11 C           2.0257    3.8453    1.5457 C.ar      1 UNL1   -0.0650
     12 C           3.7144    2.2473    0.2036 C.3       1 UNL1   -0.0122
     13 C           5.1525    2.8223    0.1555 C.3       1 UNL1   -0.0994
     14 C           6.2106    1.7494   -0.1685 C.3       1 UNL1    0.1224
     15 O           5.8869    1.1397   -1.4352 O.2       1 UNL1   -0.3489
     16 C           6.1874   -0.1804   -1.6674 C.2       1 UNL1    0.1361
     17 C           5.8429   -1.1785   -0.7417 C.2       1 UNL1   -0.1795
     18 C           6.1461   -2.5263   -1.0048 C.2       1 UNL1   -0.0418
     19 C           5.7695   -3.5864    0.0214 C.3       1 UNL1   -0.0558
     20 C           6.7892   -2.8711   -2.2142 C.2       1 UNL1   -0.0276
     21 C           7.1196   -1.8707   -3.1547 C.2       1 UNL1   -0.0418
     22 CL          7.1716   -4.5532   -2.5555 Cl        1 UNL1   -0.1374
     23 C           6.8094   -0.5277   -2.8722 C.2       1 UNL1   -0.1795
     24 C           7.8035   -2.2229   -4.4686 C.3       1 UNL1   -0.0558
     25 C           3.8790    1.0160    3.1705 C.2       1 UNL1    0.8393
     26 O           3.8564    0.6644    4.3402 O.co2     1 UNL1   -0.8143
     27 O           4.5868    0.4365    2.3608 O.co2     1 UNL1   -0.8143
     28 HC          0.3617    4.9753    4.3017 H         1 UNL1    0.1360
     29 HC1         0.3150    6.4852    0.2546 H         1 UNL1    0.1260
     30 HC2         1.9309    4.6923   -0.4455 H         1 UNL1    0.1280
     31 HC3         3.7280    1.1509    0.1953 H         1 UNL1    0.0612
     32 HC4         3.1908    2.5264   -0.7183 H         1 UNL1    0.0612
     33 HC5         5.4060    3.2627    1.1284 H         1 UNL1    0.0382
     34 HC6         5.2034    3.6353   -0.5791 H         1 UNL1    0.0382
     35 HC7         6.2220    1.0133    0.6438 H         1 UNL1    0.0757
     36 HC8         7.2073    2.2037   -0.2140 H         1 UNL1    0.0757
     37 HC9         5.3306   -0.9066    0.1811 H         1 UNL1    0.1765
     38 HC10        7.0485    0.2578   -3.5798 H         1 UNL1    0.1765
     39 HC11        1.2245    3.3685    5.4568 H         1 UNL1    0.0557
     40 HC12        2.9097    2.7909    5.5896 H         1 UNL1    0.0557
     41 HC13        1.6015    1.6446    5.1927 H         1 UNL1    0.0557
     42 HC14        5.2903   -3.1433    0.9040 H         1 UNL1    0.0482
     43 HC15        5.0680   -4.3138   -0.4049 H         1 UNL1    0.0482
     44 HC16        6.6568   -4.1302    0.3677 H         1 UNL1    0.0482
     45 HC17        7.9880   -1.3328   -5.0822 H         1 UNL1    0.0482
     46 HC18        7.1850   -2.9098   -5.0594 H         1 UNL1    0.0482
     47 HC19        8.7712   -2.7071   -4.2882 H         1 UNL1    0.0482
@<TRIPOS>BOND
     1   12   13 1
     2   12    1 1
     3   13   14 1
     4   10    9 2
     5   10   11 1
     6   16   17 2
     7   16   15 1
     8   16   23 1
     9   17   18 1
    10   15   14 1
    11   23   21 2
    12   18   20 2
    13   18   19 1
    14   20   21 1
    15   20   22 1
    16   21   24 1
    17    9    7 1
    18    1   11 ar
    19    1    2 ar
    20   11    5 ar
    21    7    8 1
    22    7    6 2
    23    2    3 ar
    24    2   25 1
    25    5    6 1
    26    5    3 ar
    27   27   25 ar
    28    3    4 1
    29   25   26 ar
    30   28    6 1
    31   29    9 1
    32   30   10 1
    33   31   12 1
    34   32   12 1
    35   33   13 1
    36   34   13 1
    37   35   14 1
    38   36   14 1
    39   37   17 1
    40   38   23 1
    41   39    4 1
    42   40    4 1
    43   41    4 1
    44   42   19 1
    45   43   19 1
    46   44   19 1
    47   45   24 1
    48   46   24 1
    49   47   24 1
@<TRIPOS>SUBSTRUCTURE
     1 UNL1     1 RESIDUE           4 A     UNL1     0 ROOT
