REMARK  Name = lig_49.pdbqt
REMARK  7 active torsions:
REMARK  status: ('A' for Active; 'I' for Inactive)
REMARK    1  A    between atoms: C_1  and  C_11
REMARK    2  A    between atoms: CA_2  and  C_23
REMARK    3  A    between atoms: C_11  and  C_12
REMARK    4  A    between atoms: C_12  and  C_13
REMARK    5  A    between atoms: C_13  and  O_14
REMARK    6  A    between atoms: O_14  and  C_15
REMARK    7  A    between atoms: C_17  and  C_18
REMARK                            x       y       z     vdW  Elec       q    Type
REMARK                         _______ _______ _______ _____ _____    ______ ____
ROOT
ATOM      1  C   UNL A   1       0.343  -1.984   0.076  0.00  0.00    -0.174 A 
ATOM      2  CA  UNL A   1      -0.952  -2.405   0.581  0.00  0.00    +0.051 A 
ATOM      3  N   UNL A   1      -1.969  -1.960  -0.263  0.00  0.00    -0.209 N 
ATOM      4  C   UNL A   1      -1.363  -1.300  -1.312  0.00  0.00    -0.040 A 
ATOM      5  C   UNL A   1      -2.004  -0.721  -2.414  0.00  0.00    -0.023 C 
ATOM      6  C   UNL A   1      -1.204  -0.115  -3.400  0.00  0.00    -0.028 C 
ATOM      7  C   UNL A   1       0.201  -0.107  -3.266  0.00  0.00    -0.047 C 
ATOM      8  C   UNL A   1       0.828  -0.697  -2.149  0.00  0.00    +0.056 C 
ATOM      9 CL   UNL A   1       2.579  -0.674  -2.069  0.00  0.00    -0.143 Cl
ATOM     10  C   UNL A   1       0.014  -1.293  -1.163  0.00  0.00    -0.060 A 
ATOM     11  H   UNL A   1      -2.947  -2.150  -0.105  0.00  0.00    +0.314 HD
ENDROOT
BRANCH   2  12
ATOM     12  C   UNL A   1      -1.274  -3.206   1.797  0.00  0.00    +0.839 C 
ATOM     13  O   UNL A   1      -2.462  -3.422   1.997  0.00  0.00    -0.810 OA
ATOM     14  OXT UNL A   1      -0.391  -3.637   2.519  0.00  0.00    -0.810 OA
ENDBRANCH   2  12
BRANCH   1  15
ATOM     15  C   UNL A   1       1.645  -2.286   0.779  0.00  0.00    +0.116 C 
BRANCH  15  16
ATOM     16  C   UNL A   1       2.145  -3.721   0.483  0.00  0.00    +0.041 C 
BRANCH  16  17
ATOM     17  C   UNL A   1       3.585  -3.763  -0.064  0.00  0.00    +0.212 C 
BRANCH  17  18
ATOM     18  O   UNL A   1       4.481  -3.263   0.944  0.00  0.00    -0.333 OA
BRANCH  18  19
ATOM     19  C   UNL A   1       5.804  -3.057   0.647  0.00  0.00    +0.153 C 
ATOM     20  C   UNL A   1       6.179  -2.191  -0.392  0.00  0.00    -0.030 C 
ATOM     21  C   UNL A   1       7.540  -1.973  -0.681  0.00  0.00    -0.034 C 
ATOM     22  C   UNL A   1       7.931  -1.026  -1.806  0.00  0.00    +0.091 C 
ATOM     23  C   UNL A   1       8.522  -2.633   0.089  0.00  0.00    -0.028 C 
ATOM     24  C   UNL A   1       8.143  -3.490   1.137  0.00  0.00    +0.037 C 
ATOM     25 CL   UNL A   1      10.232  -2.400  -0.224  0.00  0.00    -0.126 Cl
ATOM     26  C   UNL A   1       6.782  -3.697   1.418  0.00  0.00    -0.016 C 
ENDBRANCH  18  19
ENDBRANCH  17  18
ENDBRANCH  16  17
ENDBRANCH  15  16
ENDBRANCH   1  15
TORSDOF 6
