REMARK  Name = lig_32.pdbqt
REMARK  7 active torsions:
REMARK  status: ('A' for Active; 'I' for Inactive)
REMARK    1  A    between atoms: C_1  and  C_10
REMARK    2  A    between atoms: CA_2  and  C_21
REMARK    3  A    between atoms: C_10  and  C_11
REMARK    4  A    between atoms: C_11  and  C_12
REMARK    5  A    between atoms: C_12  and  O_13
REMARK    6  A    between atoms: O_13  and  C_14
REMARK    7  A    between atoms: C_17  and  C_18
REMARK                            x       y       z     vdW  Elec       q    Type
REMARK                         _______ _______ _______ _____ _____    ______ ____
ROOT
ATOM      1  C   UNL A   1       0.582  -2.040   0.432  0.00  0.00    -0.193 A 
ATOM      2  CA  UNL A   1      -0.499  -2.807  -0.024  0.00  0.00    -0.037 A 
ATOM      3  N   UNL A   1      -0.817  -2.368  -1.323  0.00  0.00    -0.214 N 
ATOM      4  C   UNL A   1       0.060  -1.368  -1.681  0.00  0.00    -0.043 A 
ATOM      5  C   UNL A   1       0.142  -0.669  -2.892  0.00  0.00    -0.030 C 
ATOM      6  C   UNL A   1       1.157   0.302  -3.018  0.00  0.00    -0.038 C 
ATOM      7  C   UNL A   1       2.051   0.545  -1.950  0.00  0.00    -0.067 C 
ATOM      8  C   UNL A   1       1.939  -0.177  -0.744  0.00  0.00    +0.014 C 
ATOM      9  C   UNL A   1       0.922  -1.135  -0.643  0.00  0.00    -0.072 A 
ATOM     10  H   UNL A   1      -1.561  -2.767  -1.875  0.00  0.00    +0.310 HD
ENDROOT
BRANCH   2  11
ATOM     11  C   UNL A   1      -1.233  -3.916   0.654  0.00  0.00    +0.927 C 
ATOM     12  OXT UNL A   1      -0.917  -4.291   1.772  0.00  0.00    -0.815 OA
ATOM     13  O   UNL A   1      -2.139  -4.429   0.012  0.00  0.00    -0.815 OA
ENDBRANCH   2  11
BRANCH   1  14
ATOM     14  C   UNL A   1       1.269  -2.211   1.765  0.00  0.00    +0.098 C 
BRANCH  14  15
ATOM     15  C   UNL A   1       2.254  -3.403   1.770  0.00  0.00    +0.023 C 
BRANCH  15  16
ATOM     16  C   UNL A   1       3.371  -3.271   0.714  0.00  0.00    +0.252 C 
BRANCH  16  17
ATOM     17  O   UNL A   1       4.254  -2.202   1.104  0.00  0.00    -0.339 OA
BRANCH  17  18
ATOM     18  C   UNL A   1       5.297  -1.814   0.298  0.00  0.00    +0.148 C 
ATOM     19  C   UNL A   1       5.135  -1.638  -1.087  0.00  0.00    -0.039 C 
ATOM     20  C   UNL A   1       6.221  -1.225  -1.876  0.00  0.00    +0.023 C 
ATOM     21  C   UNL A   1       7.475  -0.983  -1.286  0.00  0.00    -0.137 C 
ATOM     22  C   UNL A   1       8.649  -0.538  -2.143  0.00  0.00    +0.060 C 
ATOM     23  C   UNL A   1       7.631  -1.152   0.102  0.00  0.00    +0.023 C 
ATOM     24  C   UNL A   1       6.542  -1.561   0.890  0.00  0.00    -0.039 C 
ENDBRANCH  17  18
ENDBRANCH  16  17
ENDBRANCH  15  16
ENDBRANCH  14  15
ENDBRANCH   1  14
TORSDOF 6
