@<TRIPOS>MOLECULE
lig_37.pdbqt
44 46 1 0 0
SMALL
AMBER ff14SB


@<TRIPOS>ATOM
      1 C           2.6742    2.9546    1.2802 C.ar      1 UNL1   -0.2012
      2 CA          2.7672    2.4785    2.6505 C.ar      1 UNL1    0.0733
      3 N           1.9349    3.2376    3.4797 N.ar      1 UNL1   -0.2224
      4 C           1.3250    4.1867    2.6812 C.ar      1 UNL1   -0.0433
      5 C           0.4146    5.1756    3.0739 C.2       1 UNL1   -0.1470
      6 C          -0.0794    6.0469    2.0815 C.2       1 UNL1   -0.1460
      7 C           0.3414    5.9148    0.7384 C.2       1 UNL1   -0.1720
      8 C           1.2606    4.9098    0.3709 C.2       1 UNL1   -0.1020
      9 C           1.7379    4.0529    1.3713 C.ar      1 UNL1   -0.0560
     10 C           3.4480    2.3807    0.1215 C.3       1 UNL1    0.0058
     11 C           4.8759    2.9739    0.0235 C.3       1 UNL1   -0.1004
     12 C           5.9588    1.8884   -0.1337 C.3       1 UNL1    0.1084
     13 O           5.7056    1.1486   -1.3459 O.2       1 UNL1   -0.3529
     14 C           6.0691   -0.1724   -1.4423 C.2       1 UNL1    0.1401
     15 C           5.7284   -1.0946   -0.4401 C.2       1 UNL1   -0.1830
     16 C           6.0958   -2.4464   -0.5641 C.2       1 UNL1   -0.0398
     17 C           5.7204   -3.4220    0.5430 C.3       1 UNL1   -0.0598
     18 C           6.7999   -2.8731   -1.7117 C.2       1 UNL1   -0.0286
     19 C           7.1271   -1.9503   -2.7296 C.2       1 UNL1   -0.0398
     20 CL          7.2624   -4.5614   -1.8796 Cl        1 UNL1   -0.1384
     21 C           6.7523   -0.6018   -2.5859 C.2       1 UNL1   -0.1830
     22 C           7.8754   -2.3924   -3.9796 C.3       1 UNL1   -0.0598
     23 C           3.5975    1.3652    3.2039 C.2       1 UNL1    0.8303
     24 O           4.3322    0.7050    2.4853 O.co2     1 UNL1   -0.8098
     25 OXT         3.5067    1.1671    4.4077 O.co2     1 UNL1   -0.8098
     26 H           1.8429    3.0875    4.4729 H         1 UNL1    0.2977
     27 HC          0.1010    5.2670    4.1088 H         1 UNL1    0.1160
     28 HC1        -0.7871    6.8249    2.3515 H         1 UNL1    0.1080
     29 HC2        -0.0449    6.5918   -0.0174 H         1 UNL1    0.1080
     30 HC3         1.5929    4.7985   -0.6561 H         1 UNL1    0.1210
     31 HC4         3.4833    1.2875    0.2042 H         1 UNL1    0.0442
     32 HC5         2.9151    2.5796   -0.8161 H         1 UNL1    0.0442
     33 HC6         5.0997    3.5484    0.9316 H         1 UNL1    0.0402
     34 HC7         4.9282    3.6799   -0.8143 H         1 UNL1    0.0402
     35 HC8         6.9523    2.3495   -0.1768 H         1 UNL1    0.0842
     36 HC9         5.9350    1.2400    0.7499 H         1 UNL1    0.0842
     37 HC10        5.1679   -0.7611    0.4330 H         1 UNL1    0.1735
     38 HC11        6.9871    0.1248   -3.3550 H         1 UNL1    0.1735
     39 HC12        5.0631   -4.2132    0.1626 H         1 UNL1    0.0504
     40 HC13        5.1920   -2.9191    1.3634 H         1 UNL1    0.0504
     41 HC14        6.6136   -3.8950    0.9688 H         1 UNL1    0.0504
     42 HC15        8.0495   -1.5554   -4.6664 H         1 UNL1    0.0504
     43 HC16        8.8530   -2.8170   -3.7201 H         1 UNL1    0.0504
     44 HC17        7.3075   -3.1561   -4.5252 H         1 UNL1    0.0504
@<TRIPOS>BOND
     1   11   10 1
     2   11   12 1
     3   10    1 1
     4    8    7 2
     5    8    9 1
     6   14   15 2
     7   14   13 1
     8   14   21 1
     9   15   16 1
    10   16   18 2
    11   16   17 1
    12   13   12 1
    13   21   19 2
    14   18   19 1
    15   18   20 1
    16   19   22 1
    17    7    6 1
    18    1    9 ar
    19    1    2 ar
    20    9    4 ar
    21    6    5 2
    22    2    3 ar
    23    2   23 1
    24    4    5 1
    25    4    3 ar
    26   24   23 ar
    27   23   25 ar
    28    3   26 1
    29   27    5 1
    30   28    6 1
    31   29    7 1
    32   30    8 1
    33   31   10 1
    34   32   10 1
    35   33   11 1
    36   34   11 1
    37   35   12 1
    38   36   12 1
    39   37   15 1
    40   38   21 1
    41   39   17 1
    42   40   17 1
    43   41   17 1
    44   42   22 1
    45   43   22 1
    46   44   22 1
@<TRIPOS>SUBSTRUCTURE
     1 UNL1     2 RESIDUE           4 A     UNL1     0 ROOT
