REMARK  Name = lig_60.pdbqt
REMARK  8 active torsions:
REMARK  status: ('A' for Active; 'I' for Inactive)
REMARK    1  A    between atoms: C_1  and  C_2
REMARK    2  A    between atoms: C_1  and  C_14
REMARK    3  A    between atoms: C_2  and  C_3
REMARK    4  A    between atoms: C_3  and  O_4
REMARK    5  A    between atoms: O_4  and  C_5
REMARK    6  A    between atoms: C_7  and  C_8
REMARK    7  A    between atoms: C_10  and  C_13
REMARK    8  A    between atoms: C_15  and  C_23
REMARK                            x       y       z     vdW  Elec       q    Type
REMARK                         _______ _______ _______ _____ _____    ______ ____
ROOT
ATOM      1  C   UNL A   1       3.021   3.305  -0.366  0.00  0.00    +0.098 C 
ENDROOT
BRANCH   1   2
ATOM      2  C   UNL A   1       3.393   3.428   1.097  0.00  0.00    -0.117 A 
ATOM      3  C   UNL A   1       3.565   4.654   1.755  0.00  0.00    -0.073 A 
ATOM      4  S   UNL A   1       3.975   4.475   3.484  0.00  0.00    +0.059 S 
ATOM      5  C   UNL A   1       3.964   2.721   3.292  0.00  0.00    -0.118 A 
ATOM      6  C   UNL A   1       4.253   1.791   4.302  0.00  0.00    +0.027 C 
ATOM      7  C   UNL A   1       3.643   2.320   2.009  0.00  0.00    -0.069 A 
ATOM      8  C   UNL A   1       4.222   0.419   3.991  0.00  0.00    -0.042 C 
ATOM      9  C   UNL A   1       3.899   0.001   2.685  0.00  0.00    -0.039 C 
ATOM     10  C   UNL A   1       3.606   0.951   1.689  0.00  0.00    +0.013 C 
BRANCH   3  11
ATOM     11  C   UNL A   1       3.451   6.025   1.181  0.00  0.00    +0.909 C 
ATOM     12  O   UNL A   1       3.212   6.193  -0.004  0.00  0.00    -0.814 OA
ATOM     13  O   UNL A   1       3.640   6.967   1.934  0.00  0.00    -0.814 OA
ENDBRANCH   3  11
ENDBRANCH   1   2
BRANCH   1  14
ATOM     14  C   UNL A   1       4.240   3.461  -1.307  0.00  0.00    +0.034 C 
BRANCH  14  15
ATOM     15  C   UNL A   1       5.281   2.334  -1.150  0.00  0.00    +0.251 C 
BRANCH  15  16
ATOM     16  O   UNL A   1       4.695   1.107  -1.623  0.00  0.00    -0.335 OA
BRANCH  16  17
ATOM     17  C   UNL A   1       5.300  -0.117  -1.454  0.00  0.00    +0.160 C 
ATOM     18  C   UNL A   1       4.480  -1.250  -1.419  0.00  0.00    -0.036 C 
ATOM     19  C   UNL A   1       5.031  -2.531  -1.240  0.00  0.00    -0.034 C 
ATOM     20  C   UNL A   1       4.110  -3.742  -1.183  0.00  0.00    +0.086 C 
ATOM     21  C   UNL A   1       6.430  -2.670  -1.111  0.00  0.00    -0.034 C 
ATOM     22  C   UNL A   1       7.264  -1.532  -1.156  0.00  0.00    -0.034 C 
ATOM     23 CL   UNL A   1       7.134  -4.267  -0.895  0.00  0.00    -0.127 Cl
ATOM     24  C   UNL A   1       6.693  -0.258  -1.326  0.00  0.00    -0.036 C 
ATOM     25  C   UNL A   1       8.776  -1.663  -1.021  0.00  0.00    +0.086 C 
ENDBRANCH  16  17
ENDBRANCH  15  16
ENDBRANCH  14  15
ENDBRANCH   1  14
TORSDOF 6
