REMARK  Name = lig_52.pdbqt
REMARK  7 active torsions:
REMARK  status: ('A' for Active; 'I' for Inactive)
REMARK    1  A    between atoms: C_1  and  C_11
REMARK    2  A    between atoms: CA_2  and  C_23
REMARK    3  A    between atoms: C_11  and  C_12
REMARK    4  A    between atoms: C_12  and  C_13
REMARK    5  A    between atoms: C_13  and  O_14
REMARK    6  A    between atoms: O_14  and  C_15
REMARK    7  A    between atoms: C_17  and  C_18
REMARK                            x       y       z     vdW  Elec       q    Type
REMARK                         _______ _______ _______ _____ _____    ______ ____
ROOT
ATOM      1  C   UNL A   1       0.358  -2.429   0.425  0.00  0.00    -0.174 A 
ATOM      2  CA  UNL A   1      -0.855  -3.119   0.026  0.00  0.00    +0.051 A 
ATOM      3  N   UNL A   1      -1.210  -2.761  -1.278  0.00  0.00    -0.209 N 
ATOM      4  C   UNL A   1      -0.231  -1.900  -1.739  0.00  0.00    -0.040 A 
ATOM      5  C   UNL A   1      -0.127  -1.327  -3.012  0.00  0.00    -0.023 C 
ATOM      6  C   UNL A   1       0.986  -0.502  -3.274  0.00  0.00    -0.142 C 
ATOM      7 CL   UNL A   1       1.170   0.234  -4.851  0.00  0.00    -0.143 Cl
ATOM      8  C   UNL A   1       1.959  -0.274  -2.277  0.00  0.00    -0.057 C 
ATOM      9  C   UNL A   1       1.830  -0.864  -1.003  0.00  0.00    +0.180 C 
ATOM     10  C   UNL A   1       0.715  -1.677  -0.759  0.00  0.00    -0.060 A 
ATOM     11  H   UNL A   1      -2.010  -3.134  -1.767  0.00  0.00    +0.314 HD
ENDROOT
BRANCH   2  12
ATOM     12  C   UNL A   1      -1.662  -4.106   0.800  0.00  0.00    +0.839 C 
ATOM     13  OXT UNL A   1      -1.326  -4.437   1.926  0.00  0.00    -0.810 OA
ATOM     14  O   UNL A   1      -2.642  -4.566   0.234  0.00  0.00    -0.810 OA
ENDBRANCH   2  12
BRANCH   1  15
ATOM     15  C   UNL A   1       1.073  -2.635   1.738  0.00  0.00    +0.116 C 
BRANCH  15  16
ATOM     16  C   UNL A   1       1.937  -3.918   1.740  0.00  0.00    +0.041 C 
BRANCH  16  17
ATOM     17  C   UNL A   1       3.002  -3.933   0.624  0.00  0.00    +0.212 C 
BRANCH  17  18
ATOM     18  O   UNL A   1       3.925  -2.852   0.859  0.00  0.00    -0.333 OA
BRANCH  18  19
ATOM     19  C   UNL A   1       4.919  -2.499  -0.026  0.00  0.00    +0.153 C 
ATOM     20  C   UNL A   1       5.894  -1.597   0.423  0.00  0.00    -0.030 C 
ATOM     21  C   UNL A   1       6.928  -1.169  -0.430  0.00  0.00    -0.034 C 
ATOM     22  C   UNL A   1       7.971  -0.185   0.079  0.00  0.00    +0.091 C 
ATOM     23  C   UNL A   1       6.975  -1.657  -1.752  0.00  0.00    -0.028 C 
ATOM     24  C   UNL A   1       5.995  -2.553  -2.210  0.00  0.00    +0.037 C 
ATOM     25 CL   UNL A   1       8.240  -1.161  -2.861  0.00  0.00    -0.126 Cl
ATOM     26  C   UNL A   1       4.966  -2.974  -1.351  0.00  0.00    -0.016 C 
ENDBRANCH  18  19
ENDBRANCH  17  18
ENDBRANCH  16  17
ENDBRANCH  15  16
ENDBRANCH   1  15
TORSDOF 6
