REMARK  Name = lig_31.pdbqt
REMARK  7 active torsions:
REMARK  status: ('A' for Active; 'I' for Inactive)
REMARK    1  A    between atoms: C_1  and  C_2
REMARK    2  A    between atoms: C_1  and  C_14
REMARK    3  A    between atoms: CA_10  and  C_11
REMARK    4  A    between atoms: C_14  and  C_15
REMARK    5  A    between atoms: C_15  and  O_16
REMARK    6  A    between atoms: O_16  and  C_17
REMARK    7  A    between atoms: C_21  and  C_23
REMARK                            x       y       z     vdW  Elec       q    Type
REMARK                         _______ _______ _______ _____ _____    ______ ____
ROOT
ATOM      1  C   UNL A   1       7.193   1.989   1.777  0.00  0.00    +0.104 C 
ENDROOT
BRANCH   1   2
ATOM      2  C   UNL A   1       8.431   1.423   1.121  0.00  0.00    -0.182 A 
ATOM      3  C   UNL A   1       9.799   1.836   1.338  0.00  0.00    -0.071 A 
ATOM      4  C   UNL A   1      10.329   2.849   2.149  0.00  0.00    +0.025 C 
ATOM      5  C   UNL A   1      10.613   1.034   0.585  0.00  0.00    -0.039 A 
ATOM      6  C   UNL A   1      11.730   3.018   2.167  0.00  0.00    -0.068 C 
ATOM      7  C   UNL A   1      12.564   2.184   1.387  0.00  0.00    -0.033 C 
ATOM      8  C   UNL A   1      12.006   1.172   0.580  0.00  0.00    -0.031 C 
ATOM      9  N   UNL A   1       9.837   0.130  -0.105  0.00  0.00    -0.214 N 
ATOM     10  CA  UNL A   1       8.485   0.349   0.218  0.00  0.00    -0.048 A 
ATOM     11  H   UNL A   1      10.143  -0.597  -0.735  0.00  0.00    +0.311 HD
BRANCH  10  12
ATOM     12  C   UNL A   1       7.388  -0.480  -0.362  0.00  0.00    +0.933 C 
ATOM     13  OXT UNL A   1       7.730  -1.355  -1.142  0.00  0.00    -0.823 OA
ATOM     14  O   UNL A   1       6.219  -0.258  -0.094  0.00  0.00    -0.823 OA
ENDBRANCH  10  12
ENDBRANCH   1   2
BRANCH   1  15
ATOM     15  C   UNL A   1       6.761   3.335   1.151  0.00  0.00    -0.024 C 
BRANCH  15  16
ATOM     16  C   UNL A   1       6.042   3.176  -0.211  0.00  0.00    +0.288 C 
BRANCH  16  17
ATOM     17  O   UNL A   1       4.683   3.656  -0.099  0.00  0.00    -0.346 OA
BRANCH  17  18
ATOM     18  C   UNL A   1       3.759   3.034   0.711  0.00  0.00    +0.133 C 
ATOM     19  C   UNL A   1       3.619   1.637   0.727  0.00  0.00    +0.066 C 
ATOM     20  C   UNL A   1       2.685   1.036   1.585  0.00  0.00    +0.039 C 
ATOM     21  C   UNL A   1       1.887   1.831   2.425  0.00  0.00    -0.002 C 
ATOM     22  C   UNL A   1       2.013   3.237   2.415  0.00  0.00    -0.154 C 
ATOM     23  C   UNL A   1       2.950   3.827   1.539  0.00  0.00    +0.019 C 
BRANCH  22  24
ATOM     24  C   UNL A   1       1.137   4.101   3.329  0.00  0.00    +0.687 C 
ATOM     25  F   UNL A   1      -0.069   4.345   2.774  0.00  0.00    -0.249 F 
ATOM     26  F   UNL A   1       0.900   3.513   4.524  0.00  0.00    -0.249 F 
ATOM     27  F   UNL A   1       1.688   5.305   3.603  0.00  0.00    -0.249 F 
ENDBRANCH  22  24
ENDBRANCH  17  18
ENDBRANCH  16  17
ENDBRANCH  15  16
ENDBRANCH   1  15
TORSDOF 7
