REMARK  Name = lig_50.pdbqt
REMARK  8 active torsions:
REMARK  status: ('A' for Active; 'I' for Inactive)
REMARK    1  A    between atoms: C_1  and  C_11
REMARK    2  A    between atoms: CA_2  and  C_24
REMARK    3  A    between atoms: C_11  and  C_12
REMARK    4  A    between atoms: C_12  and  C_13
REMARK    5  A    between atoms: C_13  and  O_14
REMARK    6  A    between atoms: O_14  and  C_15
REMARK    7  A    between atoms: C_17  and  C_18
REMARK    8  A    between atoms: C_20  and  C_23
REMARK                            x       y       z     vdW  Elec       q    Type
REMARK                         _______ _______ _______ _____ _____    ______ ____
ROOT
ATOM      1  C   UNL A   1       2.562   2.955   1.284  0.00  0.00    -0.164 A 
ATOM      2  CA  UNL A   1       2.638   2.393   2.568  0.00  0.00    -0.050 A 
ATOM      3  N   UNL A   1       1.865   3.188   3.429  0.00  0.00    -0.209 N 
ATOM      4  C   UNL A   1       1.341   4.239   2.714  0.00  0.00    -0.036 A 
ATOM      5  C   UNL A   1       0.536   5.279   3.195  0.00  0.00    -0.024 C 
ATOM      6  C   UNL A   1       0.133   6.271   2.281  0.00  0.00    -0.022 C 
ATOM      7  C   UNL A   1       0.547   6.202   0.932  0.00  0.00    -0.048 C 
ATOM      8  C   UNL A   1       1.361   5.143   0.477  0.00  0.00    +0.059 C 
ATOM      9 CL   UNL A   1       1.862   5.143  -1.202  0.00  0.00    -0.127 Cl
ATOM     10  C   UNL A   1       1.743   4.151   1.404  0.00  0.00    -0.063 A 
ATOM     11  H   UNL A   1       1.763   2.992   4.414  0.00  0.00    +0.314 HD
ENDROOT
BRANCH   2  12
ATOM     12  C   UNL A   1       3.372   1.188   3.055  0.00  0.00    +0.933 C 
ATOM     13  OXT UNL A   1       3.251   0.939   4.246  0.00  0.00    -0.818 OA
ATOM     14  O   UNL A   1       4.070   0.519   2.311  0.00  0.00    -0.818 OA
ENDBRANCH   2  12
BRANCH   1  15
ATOM     15  C   UNL A   1       3.230   2.365   0.062  0.00  0.00    +0.111 C 
BRANCH  15  16
ATOM     16  C   UNL A   1       4.650   2.943  -0.167  0.00  0.00    -0.017 C 
BRANCH  16  17
ATOM     17  C   UNL A   1       5.730   1.846  -0.239  0.00  0.00    +0.278 C 
BRANCH  17  18
ATOM     18  O   UNL A   1       5.484   1.033  -1.403  0.00  0.00    -0.348 OA
BRANCH  18  19
ATOM     19  C   UNL A   1       5.973  -0.248  -1.469  0.00  0.00    +0.143 C 
ATOM     20  C   UNL A   1       5.733  -1.167  -0.436  0.00  0.00    -0.006 C 
ATOM     21  C   UNL A   1       6.227  -2.481  -0.526  0.00  0.00    -0.043 C 
ATOM     22  C   UNL A   1       5.956  -3.456   0.612  0.00  0.00    +0.085 C 
ATOM     23  C   UNL A   1       6.958  -2.872  -1.670  0.00  0.00    -0.030 C 
ATOM     24  C   UNL A   1       7.185  -1.953  -2.718  0.00  0.00    -0.043 C 
ATOM     25 CL   UNL A   1       7.579  -4.512  -1.795  0.00  0.00    -0.138 Cl
ATOM     26  C   UNL A   1       6.683  -0.643  -2.609  0.00  0.00    -0.006 C 
ATOM     27  C   UNL A   1       7.958  -2.358  -3.966  0.00  0.00    +0.085 C 
ENDBRANCH  18  19
ENDBRANCH  17  18
ENDBRANCH  16  17
ENDBRANCH  15  16
ENDBRANCH   1  15
TORSDOF 6
