@<TRIPOS>MOLECULE
lig_53.pdbqt
44 46 1 0 0
SMALL
AMBER ff14SB


@<TRIPOS>ATOM
      1 C           2.6960    2.9095    1.4417 C.ar      1 UNL1   -0.1642
      2 CA          2.7515    2.3719    2.7357 C.ar      1 UNL1   -0.0502
      3 N           1.9177    3.1514    3.5589 N.ar      1 UNL1   -0.2094
      4 C           1.3634    4.1596    2.8012 C.ar      1 UNL1   -0.0363
      5 C           0.4863    5.1745    3.2044 C.2       1 UNL1   -0.1470
      6 C           0.0658    6.0998    2.2276 C.2       1 UNL1   -0.1370
      7 CL         -1.0298    7.3920    2.6676 Cl        1 UNL1   -0.1274
      8 C           0.5242    5.9931    0.8952 C.2       1 UNL1   -0.1730
      9 C           1.4089    4.9582    0.5243 C.2       1 UNL1    0.0594
     10 C           1.8108    4.0490    1.5117 C.ar      1 UNL1   -0.0630
     11 C           3.4572    2.3773    0.2535 C.3       1 UNL1   -0.0102
     12 C           4.9033    2.9313    0.1917 C.3       1 UNL1   -0.0954
     13 C           5.9529    1.8220   -0.0168 C.3       1 UNL1    0.1114
     14 O           5.6728    1.1466   -1.2598 O.2       1 UNL1   -0.3479
     15 C           6.0315   -0.1681   -1.4293 C.2       1 UNL1    0.1431
     16 C           5.6895   -1.1417   -0.4773 C.2       1 UNL1   -0.1815
     17 C           6.0518   -2.4862   -0.6753 C.2       1 UNL1   -0.0428
     18 C           5.6750   -3.5203    0.3771 C.3       1 UNL1   -0.0533
     19 C           6.7527   -2.8522   -1.8457 C.2       1 UNL1   -0.0296
     20 C           7.0815   -1.8770   -2.8128 C.2       1 UNL1   -0.0428
     21 CL          7.2092   -4.5304   -2.1056 Cl        1 UNL1   -0.1384
     22 C           6.7114   -0.5371   -2.5957 C.2       1 UNL1   -0.1815
     23 C           7.8269   -2.2532   -4.0861 C.3       1 UNL1   -0.0533
     24 C           3.5270    1.2029    3.2451 C.2       1 UNL1    0.9328
     25 O           4.2509    0.5542    2.5059 O.co2     1 UNL1   -0.8183
     26 OXT         3.4009    0.9542    4.4346 O.co2     1 UNL1   -0.8183
     27 H           1.7864    2.9727    4.5440 H         1 UNL1    0.3137
     28 HC          0.1430    5.2476    4.2313 H         1 UNL1    0.1230
     29 HC1         0.1938    6.7133    0.1536 H         1 UNL1    0.1150
     30 HC2         1.7706    4.8669   -0.4941 H         1 UNL1    0.1250
     31 HC3         2.9356    2.6389   -0.6746 H         1 UNL1    0.0607
     32 HC4         3.4601    1.2804    0.2747 H         1 UNL1    0.0607
     33 HC5         5.1402    3.4520    1.1286 H         1 UNL1    0.0392
     34 HC6         4.9823    3.6767   -0.6092 H         1 UNL1    0.0392
     35 HC7         6.9604    2.2537   -0.0422 H         1 UNL1    0.0832
     36 HC8         5.9101    1.1340    0.8357 H         1 UNL1    0.0832
     37 HC9         5.1320   -0.8538    0.4137 H         1 UNL1    0.1760
     38 HC10        6.9479    0.2288   -3.3253 H         1 UNL1    0.1760
     39 HC11        5.0177   -4.2895   -0.0462 H         1 UNL1    0.0462
     40 HC12        6.5677   -4.0166    0.7770 H         1 UNL1    0.0462
     41 HC13        5.1463   -3.0629    1.2233 H         1 UNL1    0.0462
     42 HC14        8.0026   -1.3809   -4.7272 H         1 UNL1    0.0462
     43 HC15        8.8038   -2.6939   -3.8517 H         1 UNL1    0.0462
     44 HC16        7.2561   -2.9847   -4.6716 H         1 UNL1    0.0462
@<TRIPOS>BOND
     1   12   11 1
     2   12   13 1
     3   11    1 1
     4    9    8 2
     5    9   10 1
     6   15   16 2
     7   15   14 1
     8   15   22 1
     9   16   17 1
    10   17   19 2
    11   17   18 1
    12   14   13 1
    13   22   20 2
    14   19   20 1
    15   19   21 1
    16   20   23 1
    17    8    6 1
    18    1   10 ar
    19    1    2 ar
    20   10    4 ar
    21    6    7 1
    22    6    5 2
    23    2    3 ar
    24    2   24 1
    25    4    5 1
    26    4    3 ar
    27   25   24 ar
    28   24   26 ar
    29    3   27 1
    30   28    5 1
    31   29    8 1
    32   30    9 1
    33   31   11 1
    34   32   11 1
    35   33   12 1
    36   34   12 1
    37   35   13 1
    38   36   13 1
    39   37   16 1
    40   38   22 1
    41   39   18 1
    42   40   18 1
    43   41   18 1
    44   42   23 1
    45   43   23 1
    46   44   23 1
@<TRIPOS>SUBSTRUCTURE
     1 UNL1     2 RESIDUE           4 A     UNL1     0 ROOT
