@<TRIPOS>MOLECULE
lig_34.pdbqt
41 43 1 0 0
SMALL
AMBER ff14SB


@<TRIPOS>ATOM
      1 C           8.2252    1.5006    1.3401 C.3       1 UNL1   -0.0042
      2 C           9.0987    1.1723    0.1519 C.ar      1 UNL1   -0.1822
      3 C          10.3778    1.7570   -0.1820 C.ar      1 UNL1   -0.0710
      4 C          11.1126    2.7673    0.4534 C.2       1 UNL1   -0.0960
      5 C          10.8514    1.1367   -1.3059 C.ar      1 UNL1   -0.0393
      6 C          12.3592    3.1284   -0.0997 C.2       1 UNL1   -0.1770
      7 C          12.8437    2.4810   -1.2595 C.2       1 UNL1   -0.1410
      8 C          12.0845    1.4670   -1.8801 C.2       1 UNL1   -0.1490
      9 N           9.9410    0.1873   -1.7118 N.ar      1 UNL1   -0.2144
     10 CA          8.8536    0.1865   -0.8179 C.ar      1 UNL1   -0.0482
     11 C           7.6980   -0.7450   -0.9736 C.2       1 UNL1    0.9328
     12 OXT         7.7420   -1.5015   -1.9310 O.co2     1 UNL1   -0.8228
     13 O           6.7514   -0.7105   -0.2042 O.co2     1 UNL1   -0.8228
     14 C           7.4188    2.8035    1.1374 C.3       1 UNL1   -0.0964
     15 C           6.2448    2.6520    0.1370 C.3       1 UNL1    0.1104
     16 O           5.0035    3.0050    0.7892 O.2       1 UNL1   -0.3459
     17 C           4.4917    2.2710    1.8377 C.2       1 UNL1    0.1331
     18 C           4.5697    0.8686    1.8779 C.2       1 UNL1   -0.1550
     19 C           4.0661    0.1627    2.9842 C.2       1 UNL1   -0.1040
     20 C           3.4693    0.8497    4.0636 C.2       1 UNL1   -0.1370
     21 C           3.3835    2.2571    4.0073 C.2       1 UNL1   -0.1543
     22 C           3.8871    2.9593    2.8987 C.2       1 UNL1   -0.1330
     23 C           2.9320    0.1014    5.2902 C.3       1 UNL1    0.6872
     24 F           1.6672    0.4720    5.5906 F         1 UNL1   -0.2486
     25 F           2.9066   -1.2417    5.1384 F         1 UNL1   -0.2486
     26 F           3.6763    0.3535    6.3893 F         1 UNL1   -0.2486
     27 H          10.0086   -0.4411   -2.4984 H         1 UNL1    0.3107
     28 HC2         7.5560    0.6764    1.6073 H         1 UNL1    0.0542
     29 HC3         8.8730    1.6330    2.2145 H         1 UNL1    0.0542
     30 HC         10.7312    3.2518    1.3469 H         1 UNL1    0.1210
     31 HC1        12.9516    3.9059    0.3726 H         1 UNL1    0.1090
     32 HC4        13.8070    2.7644   -1.6737 H         1 UNL1    0.1080
     33 HC5        12.4445    0.9577   -2.7685 H         1 UNL1    0.1180
     34 HC6         7.0446    3.1399    2.1122 H         1 UNL1    0.0362
     35 HC7         8.0926    3.5939    0.7837 H         1 UNL1    0.0362
     36 HC8         6.1975    1.6360   -0.2677 H         1 UNL1    0.0887
     37 HC9         6.4131    3.3233   -0.7131 H         1 UNL1    0.0887
     38 HC10        5.0248    0.3202    1.0573 H         1 UNL1    0.2210
     39 HC11        4.1515   -0.9219    2.9950 H         1 UNL1    0.1430
     40 HC12        2.9311    2.8060    4.8299 H         1 UNL1    0.1350
     41 HC13        3.8294    4.0420    2.8616 H         1 UNL1    0.1520
@<TRIPOS>BOND
     1   13   11 ar
     2   15   16 1
     3   15   14 1
     4   16   17 1
     5   11   12 ar
     6   11   10 1
     7   14    1 1
     8   10    9 ar
     9   10    2 ar
    10    9    5 ar
    11   17   18 2
    12   17   22 1
    13    2    1 1
    14    2    3 ar
    15   18   19 1
    16    5    3 ar
    17    5    8 1
    18    3    4 1
    19   22   21 2
    20    8    7 2
    21   19   20 2
    22    4    6 2
    23    7    6 1
    24   21   20 1
    25   20   23 1
    26   23   25 1
    27   23   24 1
    28   23   26 1
    29    9   27 1
    30   28    1 1
    31   29    1 1
    32   30    4 1
    33   31    6 1
    34   32    7 1
    35   33    8 1
    36   34   14 1
    37   35   14 1
    38   36   15 1
    39   37   15 1
    40   38   18 1
    41   39   19 1
    42   40   21 1
    43   41   22 1
@<TRIPOS>SUBSTRUCTURE
     1 UNL1    10 RESIDUE           4 A     UNL1     0 ROOT
