REMARK  Name = lig_37.pdbqt
REMARK  8 active torsions:
REMARK  status: ('A' for Active; 'I' for Inactive)
REMARK    1  A    between atoms: C_1  and  C_10
REMARK    2  A    between atoms: CA_2  and  C_23
REMARK    3  A    between atoms: C_10  and  C_11
REMARK    4  A    between atoms: C_11  and  C_12
REMARK    5  A    between atoms: C_12  and  O_13
REMARK    6  A    between atoms: O_13  and  C_14
REMARK    7  A    between atoms: C_16  and  C_17
REMARK    8  A    between atoms: C_19  and  C_22
REMARK                            x       y       z     vdW  Elec       q    Type
REMARK                         _______ _______ _______ _____ _____    ______ ____
ROOT
ATOM      1  C   UNL A   1       2.674   2.955   1.280  0.00  0.00    -0.201 A 
ATOM      2  CA  UNL A   1       2.767   2.478   2.651  0.00  0.00    +0.073 A 
ATOM      3  N   UNL A   1       1.935   3.238   3.480  0.00  0.00    -0.222 N 
ATOM      4  C   UNL A   1       1.325   4.187   2.681  0.00  0.00    -0.043 A 
ATOM      5  C   UNL A   1       0.415   5.176   3.074  0.00  0.00    -0.031 C 
ATOM      6  C   UNL A   1      -0.079   6.047   2.082  0.00  0.00    -0.038 C 
ATOM      7  C   UNL A   1       0.341   5.915   0.738  0.00  0.00    -0.064 C 
ATOM      8  C   UNL A   1       1.261   4.910   0.371  0.00  0.00    +0.019 C 
ATOM      9  C   UNL A   1       1.738   4.053   1.371  0.00  0.00    -0.056 A 
ATOM     10  H   UNL A   1       1.843   3.087   4.473  0.00  0.00    +0.298 HD
ENDROOT
BRANCH   2  11
ATOM     11  C   UNL A   1       3.598   1.365   3.204  0.00  0.00    +0.830 C 
ATOM     12  O   UNL A   1       4.332   0.705   2.485  0.00  0.00    -0.810 OA
ATOM     13  OXT UNL A   1       3.507   1.167   4.408  0.00  0.00    -0.810 OA
ENDBRANCH   2  11
BRANCH   1  14
ATOM     14  C   UNL A   1       3.448   2.381   0.121  0.00  0.00    +0.094 C 
BRANCH  14  15
ATOM     15  C   UNL A   1       4.876   2.974   0.024  0.00  0.00    -0.020 C 
BRANCH  15  16
ATOM     16  C   UNL A   1       5.959   1.888  -0.134  0.00  0.00    +0.277 C 
BRANCH  16  17
ATOM     17  O   UNL A   1       5.706   1.149  -1.346  0.00  0.00    -0.353 OA
BRANCH  17  18
ATOM     18  C   UNL A   1       6.069  -0.172  -1.442  0.00  0.00    +0.140 C 
ATOM     19  C   UNL A   1       5.728  -1.095  -0.440  0.00  0.00    -0.010 C 
ATOM     20  C   UNL A   1       6.096  -2.446  -0.564  0.00  0.00    -0.040 C 
ATOM     21  C   UNL A   1       5.720  -3.422   0.543  0.00  0.00    +0.091 C 
ATOM     22  C   UNL A   1       6.800  -2.873  -1.712  0.00  0.00    -0.029 C 
ATOM     23  C   UNL A   1       7.127  -1.950  -2.730  0.00  0.00    -0.040 C 
ATOM     24 CL   UNL A   1       7.262  -4.561  -1.880  0.00  0.00    -0.138 Cl
ATOM     25  C   UNL A   1       6.752  -0.602  -2.586  0.00  0.00    -0.010 C 
ATOM     26  C   UNL A   1       7.875  -2.392  -3.980  0.00  0.00    +0.091 C 
ENDBRANCH  17  18
ENDBRANCH  16  17
ENDBRANCH  15  16
ENDBRANCH  14  15
ENDBRANCH   1  14
TORSDOF 6
