REMARK  Name = lig_36.pdbqt
REMARK  8 active torsions:
REMARK  status: ('A' for Active; 'I' for Inactive)
REMARK    1  A    between atoms: C_1  and  C_10
REMARK    2  A    between atoms: CA_2  and  C_23
REMARK    3  A    between atoms: C_10  and  C_11
REMARK    4  A    between atoms: C_11  and  C_12
REMARK    5  A    between atoms: C_12  and  O_13
REMARK    6  A    between atoms: O_13  and  C_14
REMARK    7  A    between atoms: C_16  and  C_21
REMARK    8  A    between atoms: C_21  and  C_22
REMARK                            x       y       z     vdW  Elec       q    Type
REMARK                         _______ _______ _______ _____ _____    ______ ____
ROOT
ATOM      1  C   UNL A   1      -0.336   3.394   3.926  0.00  0.00    -0.182 A 
ATOM      2  CA  UNL A   1      -0.400   2.305   4.889  0.00  0.00    +0.040 A 
ATOM      3  N   UNL A   1      -1.048   2.728   6.054  0.00  0.00    -0.214 N 
ATOM      4  C   UNL A   1      -1.401   4.049   5.865  0.00  0.00    -0.040 A 
ATOM      5  C   UNL A   1      -2.072   4.891   6.760  0.00  0.00    -0.031 C 
ATOM      6  C   UNL A   1      -2.328   6.216   6.351  0.00  0.00    -0.035 C 
ATOM      7  C   UNL A   1      -1.915   6.664   5.076  0.00  0.00    -0.070 C 
ATOM      8  C   UNL A   1      -1.240   5.794   4.194  0.00  0.00    +0.025 C 
ATOM      9  C   UNL A   1      -0.996   4.481   4.619  0.00  0.00    -0.070 A 
ATOM     10  H   UNL A   1      -1.203   2.134   6.855  0.00  0.00    +0.310 HD
ENDROOT
BRANCH   2  11
ATOM     11  C   UNL A   1       0.111   0.908   4.779  0.00  0.00    +0.843 C 
ATOM     12  O   UNL A   1       0.692   0.527   3.777  0.00  0.00    -0.821 OA
ATOM     13  OXT UNL A   1      -0.052   0.192   5.757  0.00  0.00    -0.821 OA
ENDBRANCH   2  11
BRANCH   1  14
ATOM     14  C   UNL A   1       0.278   3.336   2.547  0.00  0.00    +0.105 C 
BRANCH  14  15
ATOM     15  C   UNL A   1       1.704   3.935   2.520  0.00  0.00    -0.025 C 
BRANCH  15  16
ATOM     16  C   UNL A   1       2.804   2.874   2.727  0.00  0.00    +0.286 C 
BRANCH  16  17
ATOM     17  O   UNL A   1       3.095   2.281   1.446  0.00  0.00    -0.348 OA
BRANCH  17  18
ATOM     18  C   UNL A   1       3.924   1.191   1.363  0.00  0.00    +0.141 C 
ATOM     19  C   UNL A   1       5.054   1.255   0.535  0.00  0.00    -0.034 C 
ATOM     20  C   UNL A   1       5.919   0.151   0.412  0.00  0.00    -0.057 C 
ATOM     21  C   UNL A   1       5.626  -1.032   1.127  0.00  0.00    -0.026 C 
ATOM     22  C   UNL A   1       4.484  -1.099   1.944  0.00  0.00    +0.058 C 
ATOM     23 CL   UNL A   1       6.644  -2.457   1.013  0.00  0.00    -0.137 Cl
ATOM     24  C   UNL A   1       3.631   0.011   2.061  0.00  0.00    +0.036 C 
BRANCH  20  25
ATOM     25  C   UNL A   1       7.135   0.260  -0.503  0.00  0.00    +0.057 C 
ATOM     26  C   UNL A   1       6.841  -0.271  -1.920  0.00  0.00    +0.011 C 
ENDBRANCH  20  25
ENDBRANCH  17  18
ENDBRANCH  16  17
ENDBRANCH  15  16
ENDBRANCH  14  15
ENDBRANCH   1  14
TORSDOF 7
