@<TRIPOS>MOLECULE
lig_33.pdbqt
38 40 1 0 0
SMALL
AMBER ff14SB


@<TRIPOS>ATOM
      1 CA          4.6031    2.2877   -1.4854 C.ar      1 UNL1   -0.0482
      2 N           3.4996    2.9960   -1.9950 N.ar      1 UNL1   -0.2144
      3 C           3.8774    3.6270   -3.1607 C.ar      1 UNL1   -0.0403
      4 C           3.1099    4.4468   -3.9968 C.2       1 UNL1   -0.1490
      5 C           3.7374    4.9834   -5.1404 C.2       1 UNL1   -0.1420
      6 C           5.0942    4.6934   -5.4146 C.2       1 UNL1   -0.1780
      7 C           5.8387    3.8634   -4.5493 C.2       1 UNL1   -0.0960
      8 C           5.1913    3.3416   -3.4215 C.ar      1 UNL1   -0.0710
      9 C           5.6760    2.4825   -2.3667 C.ar      1 UNL1   -0.1812
     10 C           7.0460    1.8867   -2.1732 C.3       1 UNL1   -0.0042
     11 C           7.8644    2.6650   -1.1148 C.3       1 UNL1   -0.0954
     12 C           8.7032    1.7635   -0.1811 C.3       1 UNL1    0.1094
     13 O           9.8670    1.2518   -0.8701 O.2       1 UNL1   -0.3479
     14 C           9.8378    0.1898   -1.7468 C.2       1 UNL1    0.1391
     15 C          10.7630    0.1874   -2.8010 C.2       1 UNL1   -0.1760
     16 C          10.8010   -0.8835   -3.7113 C.2       1 UNL1   -0.1010
     17 C           9.9128   -1.9599   -3.5595 C.2       1 UNL1   -0.0306
     18 CL          9.9605   -3.2956   -4.6902 Cl        1 UNL1   -0.1374
     19 C           8.9901   -1.9678   -2.5009 C.2       1 UNL1   -0.1010
     20 C           8.9572   -0.8976   -1.5891 C.2       1 UNL1   -0.1760
     21 C           4.5532    1.5028   -0.2149 C.2       1 UNL1    0.9318
     22 O           3.4817    1.5030    0.3736 O.co2     1 UNL1   -0.8213
     23 OXT         5.5382    0.9135    0.2065 O.co2     1 UNL1   -0.8213
     24 H           2.5995    3.0203   -1.5401 H         1 UNL1    0.3097
     25 HC          2.0703    4.6608   -3.7711 H         1 UNL1    0.1180
     26 HC1         3.1751    5.6235   -5.8134 H         1 UNL1    0.1070
     27 HC2         5.5682    5.1122   -6.2967 H         1 UNL1    0.1080
     28 HC3         6.8808    3.6340   -4.7459 H         1 UNL1    0.1210
     29 HC4         7.5980    1.8654   -3.1205 H         1 UNL1    0.0552
     30 HC5         6.9281    0.8396   -1.8768 H         1 UNL1    0.0552
     31 HC6         8.5059    3.4056   -1.6078 H         1 UNL1    0.0352
     32 HC7         7.1738    3.2340   -0.4789 H         1 UNL1    0.0352
     33 HC8         8.0812    0.9652    0.2424 H         1 UNL1    0.0872
     34 HC9         9.0429    2.3797    0.6596 H         1 UNL1    0.0872
     35 HC10       11.4436    1.0252   -2.9064 H         1 UNL1    0.1770
     36 HC11       11.5129   -0.8820   -4.5312 H         1 UNL1    0.1390
     37 HC12        8.3007   -2.7999   -2.3883 H         1 UNL1    0.1390
     38 HC13        8.2392   -0.9129   -0.7738 H         1 UNL1    0.1770
@<TRIPOS>BOND
     1    5    6 2
     2    5    4 1
     3    6    7 1
     4    4    3 2
     5    7    8 2
     6   18   17 1
     7    3    8 ar
     8    3    2 ar
     9    8    9 ar
    10    2    1 ar
    11   16   17 2
    12   16   15 1
    13   17   19 1
    14    9    1 ar
    15    9   10 1
    16    1   21 1
    17   10   11 1
    18   15   14 2
    19   19   20 2
    20   22   21 ar
    21   21   23 ar
    22   14   20 1
    23   14   13 1
    24   11   12 1
    25   12   13 1
    26    2   24 1
    27   25    4 1
    28   26    5 1
    29   27    6 1
    30   28    7 1
    31   29   10 1
    32   30   10 1
    33   31   11 1
    34   32   11 1
    35   33   12 1
    36   34   12 1
    37   35   15 1
    38   36   16 1
    39   37   19 1
    40   38   20 1
@<TRIPOS>SUBSTRUCTURE
     1 UNL1     1 RESIDUE           4 A     UNL1     0 ROOT
