@<TRIPOS>MOLECULE
lig_27.pdbqt
38 40 1 0 0
SMALL
AMBER ff14SB


@<TRIPOS>ATOM
      1 CA          4.9403    2.2329    1.0039 C.ar      1 UNL1    0.0413
      2 N           4.0972    2.8649    1.9162 N.ar      1 UNL1   -0.2154
      3 C           3.5010    3.8738    1.1872 C.ar      1 UNL1   -0.0403
      4 C           2.5716    4.8239    1.6268 C.2       1 UNL1   -0.1500
      5 C           2.1093    5.7703    0.6898 C.2       1 UNL1   -0.1430
      6 C           2.5806    5.7478   -0.6429 C.2       1 UNL1   -0.1780
      7 C           3.5190    4.7792   -1.0582 C.2       1 UNL1   -0.0960
      8 C           3.9658    3.8424   -0.1151 C.ar      1 UNL1   -0.0710
      9 C           4.8736    2.8070   -0.2477 C.ar      1 UNL1   -0.1802
     10 C           5.6331    2.4022   -1.4956 C.3       1 UNL1   -0.0042
     11 C           7.0990    2.8957   -1.4481 C.3       1 UNL1   -0.0944
     12 C           8.1106    1.8901   -2.0416 C.3       1 UNL1    0.1114
     13 O           8.0778    1.9234   -3.4868 O.2       1 UNL1   -0.3519
     14 C           7.0824    1.3420   -4.2400 C.2       1 UNL1    0.1341
     15 C           6.4818    0.1224   -3.8774 C.2       1 UNL1   -0.1815
     16 C           5.4809   -0.4381   -4.6893 C.2       1 UNL1   -0.1105
     17 C           5.0896    0.2121   -5.8716 C.2       1 UNL1   -0.1850
     18 C           5.6996    1.4213   -6.2439 C.2       1 UNL1   -0.1105
     19 C           6.6977    1.9803   -5.4277 C.2       1 UNL1   -0.1815
     20 C           5.7947    1.0765    1.4177 C.2       1 UNL1    0.8433
     21 O           5.7001    0.7272    2.5865 O.co2     1 UNL1   -0.8208
     22 OXT         6.5521    0.5300    0.6283 O.co2     1 UNL1   -0.8208
     23 H           3.9983    2.6102    2.8870 H         1 UNL1    0.3097
     24 HC          2.2216    4.8307    2.6539 H         1 UNL1    0.1170
     25 HC1         1.3884    6.5226    0.9949 H         1 UNL1    0.1070
     26 HC2         2.2196    6.4839   -1.3545 H         1 UNL1    0.1070
     27 HC3         3.8879    4.7605   -2.0782 H         1 UNL1    0.1210
     28 HC4         5.1431    2.7796   -2.4009 H         1 UNL1    0.0542
     29 HC5         5.6007    1.3098   -1.5747 H         1 UNL1    0.0542
     30 HC6         7.1858    3.8692   -1.9464 H         1 UNL1    0.0342
     31 HC7         7.3846    3.0601   -0.4011 H         1 UNL1    0.0342
     32 HC8         7.9289    0.8847   -1.6396 H         1 UNL1    0.0852
     33 HC9         9.1126    2.1887   -1.7117 H         1 UNL1    0.0852
     34 HC10        6.7776   -0.3858   -2.9647 H         1 UNL1    0.1695
     35 HC11        5.0081   -1.3723   -4.3979 H         1 UNL1    0.1210
     36 HC12        4.3133   -0.2204   -6.4962 H         1 UNL1    0.1140
     37 HC13        5.3982    1.9246   -7.1580 H         1 UNL1    0.1210
     38 HC14        7.1744    2.9149   -5.7012 H         1 UNL1    0.1695
@<TRIPOS>BOND
     1   18   17 2
     2   18   19 1
     3   17   16 1
     4   19   14 2
     5   16   15 2
     6   14   15 1
     7   14   13 1
     8    7    6 2
     9    7    8 1
    10    6    5 1
    11   10   11 1
    12   10    9 1
    13   13   12 1
    14   11   12 1
    15    8    9 ar
    16    8    3 ar
    17    5    4 2
    18    9    1 ar
    19    3    4 1
    20    3    2 ar
    21    1   20 1
    22    1    2 ar
    23   21   20 ar
    24   20   22 ar
    25    2   23 1
    26   24    4 1
    27   25    5 1
    28   26    6 1
    29   27    7 1
    30   28   10 1
    31   29   10 1
    32   30   11 1
    33   31   11 1
    34   32   12 1
    35   33   12 1
    36   34   15 1
    37   35   16 1
    38   36   17 1
    39   37   18 1
    40   38   19 1
@<TRIPOS>SUBSTRUCTURE
     1 UNL1     1 RESIDUE           4 A     UNL1     0 ROOT
