@<TRIPOS>MOLECULE
lig_36.pdbqt
44 46 1 0 0
SMALL
AMBER ff14SB


@<TRIPOS>ATOM
      1 C          -0.3362    3.3942    3.9265 C.ar      1 UNL1   -0.1822
      2 CA         -0.3996    2.3050    4.8892 C.ar      1 UNL1    0.0403
      3 N          -1.0475    2.7281    6.0539 N.ar      1 UNL1   -0.2144
      4 C          -1.4009    4.0494    5.8646 C.ar      1 UNL1   -0.0403
      5 C          -2.0719    4.8915    6.7599 C.2       1 UNL1   -0.1490
      6 C          -2.3279    6.2163    6.3512 C.2       1 UNL1   -0.1420
      7 C          -1.9145    6.6642    5.0759 C.2       1 UNL1   -0.1780
      8 C          -1.2399    5.7936    4.1944 C.2       1 UNL1   -0.0960
      9 C          -0.9960    4.4806    4.6187 C.ar      1 UNL1   -0.0700
     10 C           0.2777    3.3359    2.5474 C.3       1 UNL1   -0.0042
     11 C           1.7042    3.9353    2.5203 C.3       1 UNL1   -0.0944
     12 C           2.8041    2.8739    2.7272 C.3       1 UNL1    0.1104
     13 O           3.0955    2.2808    1.4464 O.2       1 UNL1   -0.3479
     14 C           3.9239    1.1908    1.3625 C.2       1 UNL1    0.1411
     15 C           5.0538    1.2554    0.5350 C.2       1 UNL1   -0.1720
     16 C           5.9190    0.1506    0.4117 C.2       1 UNL1   -0.0573
     17 C           5.6258   -1.0325    1.1269 C.2       1 UNL1   -0.0256
     18 C           4.4842   -1.0991    1.9445 C.2       1 UNL1   -0.0900
     19 CL          6.6443   -2.4571    1.0130 Cl        1 UNL1   -0.1374
     20 C           3.6315    0.0107    2.0609 C.2       1 UNL1   -0.1800
     21 C           7.1346    0.2597   -0.5030 C.3       1 UNL1   -0.0321
     22 C           6.8414   -0.2711   -1.9204 C.3       1 UNL1   -0.0881
     23 C           0.1109    0.9079    4.7791 C.2       1 UNL1    0.8433
     24 O           0.6915    0.5267    3.7773 O.co2     1 UNL1   -0.8208
     25 OXT        -0.0522    0.1922    5.7569 O.co2     1 UNL1   -0.8208
     26 H          -1.2026    2.1344    6.8551 H         1 UNL1    0.3097
     27 HC         -2.3835    4.5343    7.7362 H         1 UNL1    0.1180
     28 HC1        -2.8454    6.8964    7.0211 H         1 UNL1    0.1070
     29 HC2        -2.1176    7.6864    4.7711 H         1 UNL1    0.1080
     30 HC3        -0.9165    6.1265    3.2136 H         1 UNL1    0.1210
     31 HC4         0.2732    2.3209    2.1320 H         1 UNL1    0.0547
     32 HC5        -0.3537    3.9259    1.8725 H         1 UNL1    0.0547
     33 HC6         1.7904    4.7088    3.2938 H         1 UNL1    0.0347
     34 HC7         1.8716    4.4396    1.5599 H         1 UNL1    0.0347
     35 HC8         3.7099    3.3522    3.1185 H         1 UNL1    0.0877
     36 HC9         2.4740    2.1263    3.4581 H         1 UNL1    0.0877
     37 HC10        5.2498    2.1703   -0.0131 H         1 UNL1    0.1380
     38 HC11        4.2528   -2.0146    2.4814 H         1 UNL1    0.1480
     39 HC12        2.7327   -0.0480    2.6729 H         1 UNL1    0.2160
     40 HC13        7.4534    1.3072   -0.5767 H         1 UNL1    0.0447
     41 HC14        7.9891   -0.2816   -0.0788 H         1 UNL1    0.0447
     42 HC15        7.7266   -0.1725   -2.5608 H         1 UNL1    0.0330
     43 HC16        6.5570   -1.3303   -1.8887 H         1 UNL1    0.0330
     44 HC17        6.0186    0.2898   -2.3815 H         1 UNL1    0.0330
@<TRIPOS>BOND
     1   22   21 1
     2   10   11 1
     3   10    1 1
     4   19   17 1
     5   18   17 2
     6   18   20 1
     7   11   12 1
     8   17   16 1
     9   20   14 2
    10   16   21 1
    11   16   15 2
    12    8    7 2
    13    8    9 1
    14   14   15 1
    15   14   13 1
    16    1    9 ar
    17    1    2 ar
    18    7    6 1
    19   13   12 1
    20    9    4 ar
    21    2    3 ar
    22    2   23 1
    23    6    5 2
    24    4    3 ar
    25    4    5 1
    26   23   24 ar
    27   23   25 ar
    28    3   26 1
    29   27    5 1
    30   28    6 1
    31   29    7 1
    32   30    8 1
    33   31   10 1
    34   32   10 1
    35   33   11 1
    36   34   11 1
    37   35   12 1
    38   36   12 1
    39   37   15 1
    40   38   18 1
    41   39   20 1
    42   40   21 1
    43   41   21 1
    44   42   22 1
    45   43   22 1
    46   44   22 1
@<TRIPOS>SUBSTRUCTURE
     1 UNL1     2 RESIDUE           4 A     UNL1     0 ROOT
