@<TRIPOS>MOLECULE
lig_65.pdbqt
43 45 1 0 0
SMALL
AMBER ff14SB


@<TRIPOS>ATOM
      1 C           3.2274    3.3494    2.2580 C.ar      1 UNL1   -0.1212
      2 C           3.8287    3.8422    3.4219 C.ar      1 UNL1   -0.3282
      3 S           2.9472    5.1958    4.1655 S.2       1 UNL1    0.2481
      4 C           1.7663    5.1274    2.8491 C.ar      1 UNL1   -0.0671
      5 C           0.6583    5.9772    2.6845 C.2       1 UNL1   -0.0920
      6 CL          0.3084    7.2469    3.8395 Cl        1 UNL1   -0.1184
      7 C          -0.1767    5.8012    1.5669 C.2       1 UNL1   -0.1500
      8 C           0.1041    4.7876    0.6299 C.2       1 UNL1   -0.1460
      9 C           1.2188    3.9465    0.8104 C.2       1 UNL1    0.0494
     10 C           2.0418    4.1257    1.9346 C.ar      1 UNL1   -0.0270
     11 C           3.7783    2.1818    1.4736 C.3       1 UNL1   -0.0172
     12 C           4.9262    2.6177    0.5359 C.3       1 UNL1   -0.0984
     13 C           5.7518    1.4211    0.0306 C.3       1 UNL1    0.1074
     14 O           4.9218    0.6185   -0.8319 O.2       1 UNL1   -0.3519
     15 C           5.4076   -0.5419   -1.3789 C.2       1 UNL1    0.1361
     16 C           4.6800   -1.7243   -1.2045 C.2       1 UNL1   -0.1785
     17 C           5.1403   -2.9335   -1.7568 C.2       1 UNL1   -0.0398
     18 C           4.3393   -4.2102   -1.5406 C.3       1 UNL1   -0.0613
     19 C           6.3412   -2.9428   -2.4999 C.2       1 UNL1   -0.0276
     20 C           7.0732   -1.7492   -2.6855 C.2       1 UNL1   -0.0398
     21 CL          6.9261   -4.4462   -3.1996 Cl        1 UNL1   -0.1394
     22 C           6.5975   -0.5513   -2.1213 C.2       1 UNL1   -0.1785
     23 C           8.3679   -1.7385   -3.4869 C.3       1 UNL1   -0.0613
     24 C           5.0786    3.3867    4.0795 C.2       1 UNL1    0.9218
     25 O           5.4031    3.9697    5.0989 O.co2     1 UNL1   -0.8088
     26 O           5.7485    2.4892    3.5972 O.co2     1 UNL1   -0.8088
     27 HC         -1.0339    6.4534    1.4270 H         1 UNL1    0.1250
     28 HC1        -0.5378    4.6562   -0.2356 H         1 UNL1    0.1190
     29 HC2         1.4417    3.1725    0.0842 H         1 UNL1    0.1280
     30 HC3         4.1244    1.3997    2.1599 H         1 UNL1    0.0597
     31 HC4         2.9897    1.7040    0.8821 H         1 UNL1    0.0597
     32 HC5         5.6006    3.2925    1.0785 H         1 UNL1    0.0432
     33 HC6         4.5241    3.1881   -0.3102 H         1 UNL1    0.0432
     34 HC7         6.6281    1.7944   -0.5119 H         1 UNL1    0.0842
     35 HC8         6.1029    0.8337    0.8908 H         1 UNL1    0.0842
     36 HC9         3.7626   -1.6914   -0.6262 H         1 UNL1    0.1730
     37 HC10        7.1423    0.3747   -2.2652 H         1 UNL1    0.1730
     38 HC11        3.4398   -4.0291   -0.9396 H         1 UNL1    0.0507
     39 HC12        4.0175   -4.6380   -2.4981 H         1 UNL1    0.0507
     40 HC13        4.9397   -4.9641   -1.0165 H         1 UNL1    0.0507
     41 HC14        8.8080   -0.7350   -3.5361 H         1 UNL1    0.0507
     42 HC15        9.1134   -2.4039   -3.0341 H         1 UNL1    0.0507
     43 HC16        8.1940   -2.0746   -4.5166 H         1 UNL1    0.0507
@<TRIPOS>BOND
     1   12   11 1
     2   12   13 1
     3   11    1 1
     4    9    8 2
     5    9   10 1
     6   15   16 2
     7   15   14 1
     8   15   22 1
     9   16   17 1
    10   14   13 1
    11   17   19 2
    12   17   18 1
    13   22   20 2
    14   19   20 1
    15   19   21 1
    16    8    7 1
    17   20   23 1
    18    1   10 ar
    19    1    2 ar
    20   10    4 ar
    21    7    5 2
    22    2   24 1
    23    2    3 ar
    24    4    5 1
    25    4    3 ar
    26   26   24 ar
    27    5    6 1
    28   24   25 ar
    29   27    7 1
    30   28    8 1
    31   29    9 1
    32   30   11 1
    33   31   11 1
    34   32   12 1
    35   33   12 1
    36   34   13 1
    37   35   13 1
    38   36   16 1
    39   37   22 1
    40   38   18 1
    41   39   18 1
    42   40   18 1
    43   41   23 1
    44   42   23 1
    45   43   23 1
@<TRIPOS>SUBSTRUCTURE
     1 UNL1     1 RESIDUE           4 A     UNL1     0 ROOT
