REMARK  Name = lig_53.pdbqt
REMARK  8 active torsions:
REMARK  status: ('A' for Active; 'I' for Inactive)
REMARK    1  A    between atoms: C_1  and  C_11
REMARK    2  A    between atoms: CA_2  and  C_24
REMARK    3  A    between atoms: C_11  and  C_12
REMARK    4  A    between atoms: C_12  and  C_13
REMARK    5  A    between atoms: C_13  and  O_14
REMARK    6  A    between atoms: O_14  and  C_15
REMARK    7  A    between atoms: C_17  and  C_18
REMARK    8  A    between atoms: C_20  and  C_23
REMARK                            x       y       z     vdW  Elec       q    Type
REMARK                         _______ _______ _______ _____ _____    ______ ____
ROOT
ATOM      1  C   UNL A   1       2.696   2.909   1.442  0.00  0.00    -0.164 A 
ATOM      2  CA  UNL A   1       2.752   2.372   2.736  0.00  0.00    -0.050 A 
ATOM      3  N   UNL A   1       1.918   3.151   3.559  0.00  0.00    -0.209 N 
ATOM      4  C   UNL A   1       1.363   4.160   2.801  0.00  0.00    -0.036 A 
ATOM      5  C   UNL A   1       0.486   5.175   3.204  0.00  0.00    -0.024 C 
ATOM      6  C   UNL A   1       0.066   6.100   2.228  0.00  0.00    -0.137 C 
ATOM      7 CL   UNL A   1      -1.030   7.392   2.668  0.00  0.00    -0.127 Cl
ATOM      8  C   UNL A   1       0.524   5.993   0.895  0.00  0.00    -0.058 C 
ATOM      9  C   UNL A   1       1.409   4.958   0.524  0.00  0.00    +0.184 C 
ATOM     10  C   UNL A   1       1.811   4.049   1.512  0.00  0.00    -0.063 A 
ATOM     11  H   UNL A   1       1.786   2.973   4.544  0.00  0.00    +0.314 HD
ENDROOT
BRANCH   2  12
ATOM     12  C   UNL A   1       3.527   1.203   3.245  0.00  0.00    +0.933 C 
ATOM     13  O   UNL A   1       4.251   0.554   2.506  0.00  0.00    -0.818 OA
ATOM     14  OXT UNL A   1       3.401   0.954   4.435  0.00  0.00    -0.818 OA
ENDBRANCH   2  12
BRANCH   1  15
ATOM     15  C   UNL A   1       3.457   2.377   0.254  0.00  0.00    +0.111 C 
BRANCH  15  16
ATOM     16  C   UNL A   1       4.903   2.931   0.192  0.00  0.00    -0.017 C 
BRANCH  16  17
ATOM     17  C   UNL A   1       5.953   1.822  -0.017  0.00  0.00    +0.278 C 
BRANCH  17  18
ATOM     18  O   UNL A   1       5.673   1.147  -1.260  0.00  0.00    -0.348 OA
BRANCH  18  19
ATOM     19  C   UNL A   1       6.032  -0.168  -1.429  0.00  0.00    +0.143 C 
ATOM     20  C   UNL A   1       5.689  -1.142  -0.477  0.00  0.00    -0.006 C 
ATOM     21  C   UNL A   1       6.052  -2.486  -0.675  0.00  0.00    -0.043 C 
ATOM     22  C   UNL A   1       5.675  -3.520   0.377  0.00  0.00    +0.085 C 
ATOM     23  C   UNL A   1       6.753  -2.852  -1.846  0.00  0.00    -0.030 C 
ATOM     24  C   UNL A   1       7.082  -1.877  -2.813  0.00  0.00    -0.043 C 
ATOM     25 CL   UNL A   1       7.209  -4.530  -2.106  0.00  0.00    -0.138 Cl
ATOM     26  C   UNL A   1       6.711  -0.537  -2.596  0.00  0.00    -0.006 C 
ATOM     27  C   UNL A   1       7.827  -2.253  -4.086  0.00  0.00    +0.085 C 
ENDBRANCH  18  19
ENDBRANCH  17  18
ENDBRANCH  16  17
ENDBRANCH  15  16
ENDBRANCH   1  15
TORSDOF 6
