@<TRIPOS>MOLECULE
lig_30.pdbqt
41 43 1 0 0
SMALL
AMBER ff14SB


@<TRIPOS>ATOM
      1 C           2.9853    2.3369   -0.2136 C.ar      1 UNL1   -0.1932
      2 CA          1.6653    2.8089   -0.2456 C.ar      1 UNL1   -0.0372
      3 N           1.5043    3.5462   -1.4325 N.ar      1 UNL1   -0.2144
      4 C           2.6930    3.5340   -2.1284 C.ar      1 UNL1   -0.0423
      5 C           2.9885    4.1298   -3.3603 C.2       1 UNL1   -0.1470
      6 C           4.2942    3.9672   -3.8679 C.2       1 UNL1   -0.1450
      7 C           5.2563    3.2266   -3.1427 C.2       1 UNL1   -0.1750
      8 C           4.9237    2.6398   -1.9037 C.2       1 UNL1   -0.1040
      9 C           3.6188    2.8144   -1.4221 C.ar      1 UNL1   -0.0730
     10 C           3.5719    1.4708    0.8736 C.3       1 UNL1    0.0148
     11 C           3.1881   -0.0189    0.7248 C.3       1 UNL1   -0.1124
     12 C           3.4618   -0.5637   -0.6968 C.3       1 UNL1    0.1284
     13 O           3.5991   -2.0000   -0.6560 O.2       1 UNL1   -0.3399
     14 C           4.6975   -2.6567   -0.1388 C.2       1 UNL1    0.1531
     15 C           4.6036   -4.0454    0.0287 C.2       1 UNL1   -0.1770
     16 C           5.6900   -4.7746    0.5387 C.2       1 UNL1   -0.1040
     17 C           6.8792   -4.1108    0.8811 C.2       1 UNL1   -0.1850
     18 C           6.9861   -2.7187    0.7159 C.2       1 UNL1   -0.0453
     19 C           8.2714   -1.9958    1.0815 C.3       1 UNL1   -0.0528
     20 C           5.8948   -1.9963    0.2018 C.2       1 UNL1   -0.2050
     21 C           0.5617    2.6150    0.7403 C.2       1 UNL1    0.9268
     22 OXT         0.7350    1.9674    1.7601 O.co2     1 UNL1   -0.8143
     23 O          -0.5067    3.1393    0.4579 O.co2     1 UNL1   -0.8143
     24 H           0.6369    3.9921   -1.6926 H         1 UNL1    0.3097
     25 HC          2.2384    4.6948   -3.9038 H         1 UNL1    0.1170
     26 HC1         4.5616    4.4133   -4.8208 H         1 UNL1    0.1070
     27 HC2         6.2590    3.1080   -3.5418 H         1 UNL1    0.1080
     28 HC3         5.6542    2.0707   -1.3389 H         1 UNL1    0.1170
     29 HC4         3.2666    1.8330    1.8633 H         1 UNL1    0.0422
     30 HC5         4.6650    1.5566    0.8537 H         1 UNL1    0.0422
     31 HC6         3.7369   -0.5995    1.4752 H         1 UNL1    0.0672
     32 HC7         2.1221   -0.1452    0.9529 H         1 UNL1    0.0672
     33 HC8         4.3635   -0.1088   -1.1237 H         1 UNL1    0.0627
     34 HC9         2.6203   -0.2889   -1.3462 H         1 UNL1    0.0627
     35 HC10        3.6802   -4.5494   -0.2375 H         1 UNL1    0.1400
     36 HC11        5.6089   -5.8498    0.6685 H         1 UNL1    0.1180
     37 HC12        7.7170   -4.6781    1.2758 H         1 UNL1    0.1190
     38 HC13        5.9855   -0.9243    0.0742 H         1 UNL1    0.1550
     39 HC14        8.8485   -2.5567    1.8269 H         1 UNL1    0.0407
     40 HC15        8.0611   -1.0049    1.5033 H         1 UNL1    0.0407
     41 HC16        8.9048   -1.8577    0.1971 H         1 UNL1    0.0407
@<TRIPOS>BOND
     1    6    5 1
     2    6    7 2
     3    5    4 2
     4    7    8 1
     5    4    3 ar
     6    4    9 ar
     7    3    2 ar
     8    8    9 2
     9   23   21 ar
    10    9    1 ar
    11    2   21 1
    12    2    1 ar
    13   21   22 ar
    14    1   10 1
    15   13   12 1
    16   13   14 1
    17   15   14 2
    18   15   16 1
    19   12   11 1
    20   14   20 1
    21   20   18 2
    22   16   17 2
    23   17   18 1
    24   18   19 1
    25   10   11 1
    26    3   24 1
    27   25    5 1
    28   26    6 1
    29   27    7 1
    30   28    8 1
    31   29   10 1
    32   30   10 1
    33   31   11 1
    34   32   11 1
    35   33   12 1
    36   34   12 1
    37   35   15 1
    38   36   16 1
    39   37   17 1
    40   38   20 1
    41   39   19 1
    42   40   19 1
    43   41   19 1
@<TRIPOS>SUBSTRUCTURE
     1 UNL1     2 RESIDUE           4 A     UNL1     0 ROOT
