@<TRIPOS>MOLECULE
lig_31.pdbqt
41 43 1 0 0
SMALL
AMBER ff14SB


@<TRIPOS>ATOM
      1 C           7.1930    1.9889    1.7773 C.3       1 UNL1   -0.0042
      2 C           8.4314    1.4231    1.1213 C.ar      1 UNL1   -0.1822
      3 C           9.7993    1.8361    1.3376 C.ar      1 UNL1   -0.0710
      4 C          10.3293    2.8486    2.1489 C.2       1 UNL1   -0.0960
      5 C          10.6127    1.0338    0.5847 C.ar      1 UNL1   -0.0393
      6 C          11.7303    3.0177    2.1675 C.2       1 UNL1   -0.1770
      7 C          12.5642    2.1838    1.3873 C.2       1 UNL1   -0.1410
      8 C          12.0058    1.1716    0.5802 C.2       1 UNL1   -0.1490
      9 N           9.8370    0.1297   -0.1050 N.ar      1 UNL1   -0.2144
     10 CA          8.4847    0.3488    0.2179 C.ar      1 UNL1   -0.0482
     11 C           7.3882   -0.4801   -0.3616 C.2       1 UNL1    0.9328
     12 OXT         7.7302   -1.3554   -1.1422 O.co2     1 UNL1   -0.8228
     13 O           6.2193   -0.2580   -0.0941 O.co2     1 UNL1   -0.8228
     14 C           6.7609    3.3348    1.1511 C.3       1 UNL1   -0.0964
     15 C           6.0416    3.1761   -0.2115 C.3       1 UNL1    0.1104
     16 O           4.6825    3.6563   -0.0994 O.2       1 UNL1   -0.3459
     17 C           3.7594    3.0336    0.7111 C.2       1 UNL1    0.1331
     18 C           3.6188    1.6371    0.7274 C.2       1 UNL1   -0.1550
     19 C           2.6854    1.0357    1.5852 C.2       1 UNL1   -0.1040
     20 C           1.8875    1.8306    2.4250 C.2       1 UNL1   -0.1370
     21 C           2.0131    3.2367    2.4154 C.2       1 UNL1   -0.1543
     22 C           2.9505    3.8266    1.5387 C.2       1 UNL1   -0.1330
     23 C           1.1371    4.1011    3.3294 C.3       1 UNL1    0.6872
     24 F          -0.0692    4.3453    2.7736 F         1 UNL1   -0.2486
     25 F           0.9002    3.5128    4.5236 F         1 UNL1   -0.2486
     26 F           1.6879    5.3054    3.6027 F         1 UNL1   -0.2486
     27 H          10.1432   -0.5971   -0.7348 H         1 UNL1    0.3107
     28 HC2         6.3575    1.2804    1.7801 H         1 UNL1    0.0542
     29 HC3         7.4195    2.1637    2.8363 H         1 UNL1    0.0542
     30 HC          9.6781    3.4802    2.7445 H         1 UNL1    0.1210
     31 HC1        12.1696    3.7927    2.7888 H         1 UNL1    0.1090
     32 HC4        13.6408    2.3231    1.4108 H         1 UNL1    0.1080
     33 HC5        12.6315    0.5202   -0.0210 H         1 UNL1    0.1180
     34 HC6         7.6452    3.9698    1.0187 H         1 UNL1    0.0362
     35 HC7         6.1123    3.8652    1.8596 H         1 UNL1    0.0362
     36 HC8         6.5714    3.7719   -0.9637 H         1 UNL1    0.0887
     37 HC9         6.0674    2.1353   -0.5526 H         1 UNL1    0.0887
     38 HC10        4.2361    1.0167    0.0834 H         1 UNL1    0.2210
     39 HC11        2.5905   -0.0474    1.6000 H         1 UNL1    0.1430
     40 HC12        1.1693    1.3517    3.0860 H         1 UNL1    0.1350
     41 HC13        3.0722    4.9047    1.5027 H         1 UNL1    0.1520
@<TRIPOS>BOND
     1   15   16 1
     2   15   14 1
     3   13   11 ar
     4   16   17 1
     5   14    1 1
     6   17   18 2
     7   17   22 1
     8   18   19 1
     9   11   12 ar
    10   11   10 1
    11    1    2 1
    12   10    2 ar
    13   10    9 ar
    14   19   20 2
    15   22   21 2
    16    2    3 ar
    17    9    5 ar
    18   20   21 1
    19   21   23 1
    20    3    5 ar
    21    3    4 1
    22    5    8 1
    23   26   23 1
    24   23   24 1
    25   23   25 1
    26    4    6 2
    27    8    7 2
    28    6    7 1
    29    9   27 1
    30   28    1 1
    31   29    1 1
    32   30    4 1
    33   31    6 1
    34   32    7 1
    35   33    8 1
    36   34   14 1
    37   35   14 1
    38   36   15 1
    39   37   15 1
    40   38   18 1
    41   39   19 1
    42   40   20 1
    43   41   22 1
@<TRIPOS>SUBSTRUCTURE
     1 UNL1    10 RESIDUE           4 A     UNL1     0 ROOT
