REMARK  Name = lig_67.pdbqt
REMARK  8 active torsions:
REMARK  status: ('A' for Active; 'I' for Inactive)
REMARK    1  A    between atoms: C_1  and  C_2
REMARK    2  A    between atoms: C_1  and  C_14
REMARK    3  A    between atoms: C_2  and  C_3
REMARK    4  A    between atoms: C_3  and  O_4
REMARK    5  A    between atoms: O_4  and  C_5
REMARK    6  A    between atoms: C_7  and  C_8
REMARK    7  A    between atoms: C_10  and  C_13
REMARK    8  A    between atoms: C_15  and  C_23
REMARK                            x       y       z     vdW  Elec       q    Type
REMARK                         _______ _______ _______ _____ _____    ______ ____
ROOT
ATOM      1  C   UNL A   1       3.306   2.404   0.107  0.00  0.00    +0.098 C 
ENDROOT
BRANCH   1   2
ATOM      2  C   UNL A   1       2.585   2.986   1.295  0.00  0.00    -0.212 A 
ATOM      3  C   UNL A   1       2.704   2.506   2.663  0.00  0.00    +0.009 A 
ATOM      4  O   UNL A   1       1.935   3.260   3.529  0.00  0.00    +0.059 OA
ATOM      5  C   UNL A   1       1.329   4.222   2.760  0.00  0.00    -0.155 A 
ATOM      6  C   UNL A   1       0.456   5.229   3.194  0.00  0.00    +0.013 C 
ATOM      7  C   UNL A   1       1.683   4.103   1.431  0.00  0.00    -0.058 A 
ATOM      8  C   UNL A   1      -0.055   6.126   2.234  0.00  0.00    -0.033 C 
ATOM      9  C   UNL A   1       0.309   6.004   0.874  0.00  0.00    -0.048 C 
ATOM     10  C   UNL A   1       1.189   4.983   0.460  0.00  0.00    +0.018 C 
BRANCH   3  11
ATOM     11  C   UNL A   1       3.510   1.378   3.206  0.00  0.00    +0.936 C 
ATOM     12  O   UNL A   1       4.205   0.702   2.462  0.00  0.00    -0.797 OA
ATOM     13  O   UNL A   1       3.460   1.169   4.408  0.00  0.00    -0.797 OA
ENDBRANCH   3  11
ENDBRANCH   1   2
BRANCH   1  14
ATOM     14  C   UNL A   1       4.729   2.995  -0.059  0.00  0.00    -0.020 C 
BRANCH  14  15
ATOM     15  C   UNL A   1       5.814   1.907  -0.168  0.00  0.00    +0.279 C 
BRANCH  15  16
ATOM     16  O   UNL A   1       5.563   1.116  -1.347  0.00  0.00    -0.353 OA
BRANCH  16  17
ATOM     17  C   UNL A   1       5.993  -0.186  -1.412  0.00  0.00    +0.135 C 
ATOM     18  C   UNL A   1       5.705  -1.096  -0.382  0.00  0.00    -0.007 C 
ATOM     19  C   UNL A   1       6.139  -2.430  -0.471  0.00  0.00    -0.040 C 
ATOM     20  C   UNL A   1       5.818  -3.393   0.664  0.00  0.00    +0.093 C 
ATOM     21  C   UNL A   1       6.858  -2.853  -1.611  0.00  0.00    -0.027 C 
ATOM     22  C   UNL A   1       7.133  -1.943  -2.656  0.00  0.00    -0.040 C 
ATOM     23 CL   UNL A   1       7.405  -4.519  -1.735  0.00  0.00    -0.137 Cl
ATOM     24  C   UNL A   1       6.692  -0.612  -2.547  0.00  0.00    -0.007 C 
ATOM     25  C   UNL A   1       7.897  -2.382  -3.898  0.00  0.00    +0.093 C 
ENDBRANCH  16  17
ENDBRANCH  15  16
ENDBRANCH  14  15
ENDBRANCH   1  14
TORSDOF 6
