@<TRIPOS>MOLECULE
lig_47.pdbqt
43 46 1 0 0
SMALL
AMBER ff14SB


@<TRIPOS>ATOM
      1 C           9.2836    0.7699   -0.1111 C.3       1 UNL1    0.0048
      2 C           9.1201    0.9557   -1.6029 C.ar      1 UNL1   -0.1992
      3 C           9.9184    1.7914   -2.4718 C.ar      1 UNL1   -0.0570
      4 C          11.0159    2.6178   -2.1917 C.2       1 UNL1   -0.1010
      5 C           9.4455    1.6549   -3.7480 C.ar      1 UNL1   -0.0423
      6 C          11.6140    3.3138   -3.2635 C.2       1 UNL1   -0.1720
      7 C          11.1155    3.1709   -4.5786 C.2       1 UNL1   -0.1450
      8 C          10.0155    2.3272   -4.8355 C.2       1 UNL1   -0.1470
      9 N           8.3897    0.7726   -3.7443 N.ar      1 UNL1   -0.2234
     10 CA          8.1846    0.3090   -2.4310 C.ar      1 UNL1   -0.0142
     11 C           7.1293   -0.6999   -2.1072 C.2       1 UNL1    0.9178
     12 OXT         6.4425   -1.0792   -3.0435 O.co2     1 UNL1   -0.8123
     13 O           6.9547   -1.1037   -0.9690 O.co2     1 UNL1   -0.8123
     14 C           8.9005    2.0362    0.6910 C.3       1 UNL1   -0.0994
     15 C           7.4102    2.4360    0.5459 C.3       1 UNL1    0.1094
     16 O           6.7919    2.5056    1.8533 O.2       1 UNL1   -0.3529
     17 C           6.6055    1.3873    2.6381 C.2       1 UNL1    0.1181
     18 C           6.6410    1.5205    4.0344 C.2       1 UNL1   -0.1420
     19 C           6.4975    0.3859    4.8575 C.2       1 UNL1   -0.1703
     20 C           6.3242   -0.8937    4.3019 C.2       1 UNL1    0.3576
     21 N           6.2107   -1.9670    5.1111 N.2       1 UNL1   -0.6790
     22 C           6.2801   -1.0137    2.8936 C.2       1 UNL1   -0.1173
     23 C           6.0617   -3.1816    4.5508 C.2       1 UNL1    0.3912
     24 C           6.0194   -3.3871    3.1633 C.2       1 UNL1   -0.2733
     25 C           6.1313   -2.2802    2.3079 C.2       1 UNL1   -0.0600
     26 C           6.4001    0.1192    2.0736 C.2       1 UNL1   -0.1760
     27 H           7.8505    0.4512   -4.5351 H         1 UNL1    0.2967
     28 HC2        10.3361    0.5384    0.0950 H         1 UNL1    0.0442
     29 HC3         8.7258   -0.0894    0.2705 H         1 UNL1    0.0442
     30 HC         11.3957    2.7131   -1.1802 H         1 UNL1    0.1220
     31 HC1        12.4664    3.9607   -3.0760 H         1 UNL1    0.1080
     32 HC4        11.5843    3.7104   -5.3958 H         1 UNL1    0.1080
     33 HC5         9.6254    2.1995   -5.8397 H         1 UNL1    0.1170
     34 HC6         9.1514    1.8737    1.7467 H         1 UNL1    0.0402
     35 HC7         9.5219    2.8756    0.3583 H         1 UNL1    0.0402
     36 HC8         7.3540    3.4206    0.0668 H         1 UNL1    0.0827
     37 HC9         6.8772    1.7344   -0.1084 H         1 UNL1    0.0827
     38 HC10        6.7941    2.5015    4.4721 H         1 UNL1    0.1340
     39 HC11        6.5336    0.4864    5.9364 H         1 UNL1    0.1320
     40 HC12        5.9797   -4.0216    5.2389 H         1 UNL1   -0.0019
     41 HC13        5.9080   -4.3881    2.7617 H         1 UNL1    0.1340
     42 HC14        6.1208   -2.3909    1.2201 H         1 UNL1    0.2050
     43 HC15        6.3449    0.0028    0.9989 H         1 UNL1    0.2100
@<TRIPOS>BOND
     1    8    5 1
     2    8    7 2
     3    9    5 ar
     4    9   10 ar
     5   13   11 ar
     6    5    3 ar
     7   11   12 ar
     8   11   10 1
     9    7    6 1
    10   10    2 ar
    11    3    2 ar
    12    3    4 1
    13    2    1 1
    14    6    4 2
    15   15   14 1
    16   15   16 1
    17   14    1 1
    18   16   17 1
    19   26   17 2
    20   26   22 1
    21   17   18 1
    22   22   25 1
    23   22   20 2
    24   25   24 2
    25   18   19 2
    26   20   19 1
    27   20   21 1
    28   24   23 1
    29   21   23 2
    30    9   27 1
    31   28    1 1
    32   29    1 1
    33   30    4 1
    34   31    6 1
    35   32    7 1
    36   33    8 1
    37   34   14 1
    38   35   14 1
    39   36   15 1
    40   37   15 1
    41   38   18 1
    42   39   19 1
    43   40   23 1
    44   41   24 1
    45   42   25 1
    46   43   26 1
@<TRIPOS>SUBSTRUCTURE
     1 UNL1    10 RESIDUE           4 A     UNL1     0 ROOT
