@<TRIPOS>MOLECULE
lig_28.pdbqt
41 43 1 0 0
SMALL
AMBER ff14SB


@<TRIPOS>ATOM
      1 C           7.1234    1.9823   -0.3641 C.ar      1 UNL1   -0.1862
      2 CA          7.4252    3.3754   -0.6455 C.ar      1 UNL1    0.0483
      3 N           8.3000    3.4696   -1.7323 N.ar      1 UNL1   -0.2144
      4 C           8.5715    2.1793   -2.1456 C.ar      1 UNL1   -0.0433
      5 C           9.4022    1.7752   -3.1982 C.2       1 UNL1   -0.1490
      6 C           9.5409    0.3918   -3.4334 C.2       1 UNL1   -0.1450
      7 C           8.8633   -0.5442   -2.6192 C.2       1 UNL1   -0.1800
      8 C           8.0360   -0.1081   -1.5637 C.2       1 UNL1   -0.1050
      9 C           7.9008    1.2699   -1.3543 C.ar      1 UNL1   -0.0730
     10 C           6.1607    1.5021    0.6935 C.3       1 UNL1    0.0138
     11 C           4.6803    1.7195    0.2977 C.3       1 UNL1   -0.1134
     12 C           4.2487    0.9938   -0.9981 C.3       1 UNL1    0.1314
     13 O           3.6817   -0.2974   -0.6922 O.2       1 UNL1   -0.3679
     14 C           4.4859   -1.3765   -0.4112 C.2       1 UNL1    0.1201
     15 C           4.6344   -1.7717    0.9271 C.2       1 UNL1   -0.1380
     16 C           5.4407   -2.8736    1.2548 C.2       1 UNL1   -0.1300
     17 C           6.0881   -3.5907    0.2362 C.2       1 UNL1   -0.1500
     18 C           5.9232   -3.2105   -1.1064 C.2       1 UNL1   -0.1270
     19 C           5.1168   -2.1060   -1.4420 C.2       1 UNL1   -0.0963
     20 C           4.9551   -1.7122   -2.9045 C.3       1 UNL1   -0.0598
     21 C           6.9319    4.6012    0.0484 C.2       1 UNL1    0.8383
     22 OXT         6.1801    4.5215    1.0064 O.co2     1 UNL1   -0.8153
     23 O           7.3229    5.6700   -0.4009 O.co2     1 UNL1   -0.8153
     24 H           8.6456    4.3435   -2.0989 H         1 UNL1    0.3097
     25 HC          9.9227    2.5042   -3.8108 H         1 UNL1    0.1160
     26 HC1        10.1774    0.0436   -4.2412 H         1 UNL1    0.1060
     27 HC2         8.9818   -1.6075   -2.8031 H         1 UNL1    0.1070
     28 HC3         7.5183   -0.8160   -0.9249 H         1 UNL1    0.1250
     29 HC4         6.3609    2.0191    1.6404 H         1 UNL1    0.0422
     30 HC5         6.3359    0.4392    0.8921 H         1 UNL1    0.0422
     31 HC6         4.0284    1.4186    1.1261 H         1 UNL1    0.0692
     32 HC7         4.5135    2.7942    0.1588 H         1 UNL1    0.0692
     33 HC8         5.0851    0.9094   -1.7028 H         1 UNL1    0.0562
     34 HC9         3.4724    1.5997   -1.4811 H         1 UNL1    0.0562
     35 HC10        4.1337   -1.2061    1.7061 H         1 UNL1    0.1450
     36 HC11        5.5671   -3.1654    2.2935 H         1 UNL1    0.1220
     37 HC12        6.7184   -4.4393    0.4862 H         1 UNL1    0.1190
     38 HC13        6.4296   -3.7693   -1.8881 H         1 UNL1    0.1230
     39 HC14        3.9342   -1.3699   -3.1146 H         1 UNL1    0.0500
     40 HC15        5.6443   -0.9003   -3.1680 H         1 UNL1    0.0500
     41 HC16        5.1627   -2.5560   -3.5732 H         1 UNL1    0.0500
@<TRIPOS>BOND
     1   23   21 ar
     2    5    4 2
     3    5    6 1
     4    3    4 ar
     5    3    2 ar
     6   21    2 1
     7   21   22 ar
     8    4    9 ar
     9    6    7 2
    10    2    1 ar
    11   20   19 1
    12   19   18 1
    13   19   14 2
    14   18   17 2
    15   17   16 1
    16    9    1 ar
    17    9    8 2
    18   16   15 2
    19   14   15 1
    20   14   13 1
    21    7    8 1
    22   12   13 1
    23   12   11 1
    24    1   10 1
    25   11   10 1
    26    3   24 1
    27   25    5 1
    28   26    6 1
    29   27    7 1
    30   28    8 1
    31   29   10 1
    32   30   10 1
    33   31   11 1
    34   32   11 1
    35   33   12 1
    36   34   12 1
    37   35   15 1
    38   36   16 1
    39   37   17 1
    40   38   18 1
    41   39   20 1
    42   40   20 1
    43   41   20 1
@<TRIPOS>SUBSTRUCTURE
     1 UNL1     2 RESIDUE           4 A     UNL1     0 ROOT
