@<TRIPOS>MOLECULE
lig_67.pdbqt
43 45 1 0 0
SMALL
AMBER ff14SB


@<TRIPOS>ATOM
      1 C           3.3059    2.4042    0.1068 C.3       1 UNL1    0.0028
      2 C           4.7285    2.9954   -0.0595 C.3       1 UNL1   -0.1014
      3 C           5.8145    1.9070   -0.1676 C.3       1 UNL1    0.1084
      4 O           5.5633    1.1162   -1.3471 O.2       1 UNL1   -0.3529
      5 C           5.9930   -0.1862   -1.4116 C.2       1 UNL1    0.1351
      6 C           5.7045   -1.0957   -0.3822 C.2       1 UNL1   -0.1795
      7 C           6.1388   -2.4302   -0.4710 C.2       1 UNL1   -0.0398
      8 C           5.8179   -3.3926    0.6645 C.3       1 UNL1   -0.0613
      9 C           6.8581   -2.8527   -1.6108 C.2       1 UNL1   -0.0266
     10 C           7.1333   -1.9434   -2.6560 C.2       1 UNL1   -0.0398
     11 CL          7.4048   -4.5194   -1.7347 Cl        1 UNL1   -0.1374
     12 C           6.6916   -0.6120   -2.5472 C.2       1 UNL1   -0.1795
     13 C           7.8968   -2.3821   -3.8979 C.3       1 UNL1   -0.0613
     14 C           2.5847    2.9864    1.2953 C.ar      1 UNL1   -0.2122
     15 C           2.7037    2.5055    2.6627 C.ar      1 UNL1    0.0088
     16 O           1.9345    3.2600    3.5287 O.2       1 UNL1    0.0588
     17 C           1.3286    4.2224    2.7599 C.ar      1 UNL1   -0.1548
     18 C           0.4563    5.2294    3.1940 C.2       1 UNL1   -0.1230
     19 C           1.6827    4.1031    1.4315 C.ar      1 UNL1   -0.0580
     20 C          -0.0554    6.1260    2.2336 C.2       1 UNL1   -0.1470
     21 C           0.3093    6.0039    0.8737 C.2       1 UNL1   -0.1600
     22 C           1.1893    4.9828    0.4601 C.2       1 UNL1   -0.1080
     23 C           3.5099    1.3784    3.2059 C.2       1 UNL1    0.9358
     24 O           4.2052    0.7018    2.4621 O.co2     1 UNL1   -0.7973
     25 O           3.4599    1.1688    4.4080 O.co2     1 UNL1   -0.7973
     26 HC2         2.7306    2.6036   -0.8054 H         1 UNL1    0.0477
     27 HC3         3.3424    1.3108    0.1882 H         1 UNL1    0.0477
     28 HC4         4.7602    3.6413   -0.9455 H         1 UNL1    0.0407
     29 HC5         4.9661    3.6341    0.8009 H         1 UNL1    0.0407
     30 HC6         5.7926    1.2959    0.7419 H         1 UNL1    0.0852
     31 HC7         6.8067    2.3688   -0.2318 H         1 UNL1    0.0852
     32 HC          5.1318   -0.7658    0.4839 H         1 UNL1    0.1725
     33 HC1         6.8859    0.1040   -3.3376 H         1 UNL1    0.1725
     34 HC8         0.1861    5.3116    4.2423 H         1 UNL1    0.1360
     35 HC9        -0.7334    6.9156    2.5421 H         1 UNL1    0.1140
     36 HC10       -0.0897    6.6995    0.1421 H         1 UNL1    0.1120
     37 HC11        1.4800    4.8759   -0.5797 H         1 UNL1    0.1260
     38 HC12        5.2681   -2.8946    1.4737 H         1 UNL1    0.0514
     39 HC13        5.2001   -4.2263    0.3095 H         1 UNL1    0.0514
     40 HC14        6.7357   -3.8079    1.0980 H         1 UNL1    0.0514
     41 HC15        8.0253   -1.5568   -4.6086 H         1 UNL1    0.0514
     42 HC16        7.3652   -3.1880   -4.4187 H         1 UNL1    0.0514
     43 HC17        8.8956   -2.7499   -3.6328 H         1 UNL1    0.0514
@<TRIPOS>BOND
     1    2    1 1
     2    2    3 1
     3    1   14 1
     4   22   21 2
     5   22   19 1
     6    5    6 2
     7    5    4 1
     8    5   12 1
     9    6    7 1
    10    4    3 1
    11    7    9 2
    12    7    8 1
    13   12   10 2
    14    9   10 1
    15    9   11 1
    16   10   13 1
    17   21   20 1
    18   14   19 ar
    19   14   15 ar
    20   19   17 ar
    21   20   18 2
    22   15   16 ar
    23   15   23 1
    24   17   18 1
    25   17   16 ar
    26   24   23 ar
    27   23   25 ar
    28   26    1 1
    29   27    1 1
    30   28    2 1
    31   29    2 1
    32   30    3 1
    33   31    3 1
    34   32    6 1
    35   33   12 1
    36   34   18 1
    37   35   20 1
    38   36   21 1
    39   37   22 1
    40   38    8 1
    41   39    8 1
    42   40    8 1
    43   41   13 1
    44   42   13 1
    45   43   13 1
@<TRIPOS>SUBSTRUCTURE
     1 UNL1     1 RESIDUE           4 A     UNL1     0 ROOT
