@<TRIPOS>MOLECULE
ligand.pdbqt
51 55 1 0 0
SMALL
AMBER ff14SB


@<TRIPOS>ATOM
      1 C          -2.7154  -32.9562  -19.6228 C.2       1 UNL1   -0.1310
      2 C          -3.3528  -34.1388  -20.0501 C.2       1 UNL1    0.0124
      3 C          -4.2516  -34.1140  -21.1323 C.2       1 UNL1   -0.1240
      4 C          -5.0870  -25.9593  -21.7197 C.2       1 UNL1   -0.1420
      5 C          -4.2200  -24.8777  -21.4552 C.2       1 UNL1   -0.1146
      6 C          -2.8605  -25.1470  -21.2118 C.2       1 UNL1   -0.1150
      7 C          -2.3813  -26.4644  -21.2510 C.2       1 UNL1   -0.1480
      8 C          -3.0808  -29.6805  -22.6664 C.3       1 UNL1    0.1504
      9 C          -5.2847  -29.6758  -21.3591 C.3       1 UNL1    0.2078
     10 C          -4.6346  -27.2976  -21.7493 C.2       1 UNL1    0.0746
     11 C          -3.2479  -27.5331  -21.5270 C.2       1 UNL1    0.0311
     12 C          -4.2890  -30.5248  -22.1892 C.3       1 UNL1   -0.0407
     13 C          -5.4145  -32.6350  -22.9408 C.3       1 UNL1   -0.0391
     14 N          -5.5469  -28.3526  -21.9605 N.pl3     1 UNL1   -0.6510
     15 O          -2.6584  -28.7793  -21.6291 O.2       1 UNL1   -0.3509
     16 C          -4.4937  -32.8911  -21.7745 C.2       1 UNL1   -0.0813
     17 C          -3.8626  -31.7247  -21.3612 C.2       1 UNL1   -0.0683
     18 C          -2.9699  -31.7354  -20.2779 C.2       1 UNL1   -0.0980
     19 CL         -3.0282  -35.6485  -19.2258 Cl        1 UNL1   -0.1224
     20 C          -4.9924  -31.2163  -23.4014 C.3       1 UNL1   -0.0694
     21 C          -6.9212  -28.1461  -22.4649 C.3       1 UNL1    0.2108
     22 C          -7.9474  -27.8757  -21.3451 C.3       1 UNL1   -0.1157
     23 C          -9.4320  -27.6160  -21.7668 C.3       1 UNL1   -0.0894
     24 C          -9.8104  -28.2094  -20.3722 C.3       1 UNL1   -0.0994
     25 C          -8.5274  -29.0849  -20.5355 C.3       1 UNL1   -0.0894
     26 C          -4.7417  -23.4564  -21.4269 C.2       1 UNL1    0.9092
     27 O          -3.9471  -22.5592  -21.1919 O.co2     1 UNL1   -0.8298
     28 O          -5.9294  -23.2751  -21.6473 O.co2     1 UNL1   -0.8298
     29 HC         -2.0280  -32.9875  -18.7828 H         1 UNL1    0.1420
     30 HC1        -4.7470  -35.0223  -21.4601 H         1 UNL1    0.1400
     31 HC2        -6.1311  -25.7232  -21.8847 H         1 UNL1    0.1610
     32 HC3        -2.1828  -24.3216  -21.0056 H         1 UNL1    0.1560
     33 HC4        -1.3270  -26.6603  -21.0876 H         1 UNL1    0.1230
     34 HC5        -3.3516  -29.1043  -23.5612 H         1 UNL1    0.0537
     35 HC6        -2.2548  -30.3501  -22.9354 H         1 UNL1    0.0537
     36 HC7        -4.8703  -29.5235  -20.3535 H         1 UNL1    0.0467
     37 HC8        -6.2129  -30.2449  -21.2313 H         1 UNL1    0.0467
     38 HC9        -5.2922  -33.3723  -23.7441 H         1 UNL1    0.0492
     39 HC10       -6.4612  -32.6390  -22.6112 H         1 UNL1    0.0492
     40 HC11       -2.4898  -30.8148  -19.9525 H         1 UNL1    0.1640
     41 HC12       -5.8417  -30.6387  -23.7848 H         1 UNL1    0.0522
     42 HC13       -4.2768  -31.3243  -24.2272 H         1 UNL1    0.0522
     43 HC14       -7.2560  -29.0263  -23.0266 H         1 UNL1    0.0512
     44 HC15       -6.9402  -27.3003  -23.1641 H         1 UNL1    0.0512
     45 HC16       -7.5444  -27.0848  -20.6996 H         1 UNL1    0.0887
     46 HC17       -9.7029  -26.5668  -21.9304 H         1 UNL1    0.0490
     47 HC18       -9.7772  -28.2073  -22.6237 H         1 UNL1    0.0490
     48 HC19       -9.7697  -27.4902  -19.5448 H         1 UNL1    0.0392
     49 HC20      -10.7600  -28.7529  -20.3231 H         1 UNL1    0.0392
     50 HC21       -7.9976  -29.3351  -19.6097 H         1 UNL1    0.0490
     51 HC22       -8.6734  -30.0023  -21.1186 H         1 UNL1    0.0490
@<TRIPOS>BOND
     1   28   26 ar
     2   23   22 1
     3   23   24 1
     4   20   13 1
     5   20   12 1
     6   21   22 1
     7   21   14 1
     8   13   16 1
     9   22   25 1
    10    4   10 2
    11    4    5 1
    12   26    5 1
    13   26   27 ar
    14   14   10 1
    15   14    9 1
    16   10   11 1
    17    5    6 2
    18    8   12 1
    19    8   15 1
    20   24   25 1
    21   12    9 1
    22   12   17 1
    23   16   17 2
    24   16    3 1
    25   11   15 1
    26   11    7 2
    27    6    7 1
    28   17   18 1
    29    3    2 2
    30   18    1 2
    31    2    1 1
    32    2   19 1
    33   29    1 1
    34   30    3 1
    35   31    4 1
    36   32    6 1
    37   33    7 1
    38   34    8 1
    39   35    8 1
    40   36    9 1
    41   37    9 1
    42   38   13 1
    43   39   13 1
    44   40   18 1
    45   41   20 1
    46   42   20 1
    47   43   21 1
    48   44   21 1
    49   45   22 1
    50   46   23 1
    51   47   23 1
    52   48   24 1
    53   49   24 1
    54   50   25 1
    55   51   25 1
@<TRIPOS>SUBSTRUCTURE
     1 UNL1     1 RESIDUE           4 A     UNL1     0 ROOT
