REMARK  Name = ligand.pdbqt
REMARK  3 active torsions:
REMARK  status: ('A' for Active; 'I' for Inactive)
REMARK    1  A    between atoms: C_5  and  C_26
REMARK    2  A    between atoms: N_14  and  C_21
REMARK    3  A    between atoms: C_21  and  C_22
REMARK                            x       y       z     vdW  Elec       q    Type
REMARK                         _______ _______ _______ _____ _____    ______ ____
ROOT
ATOM      1  C   UNL A   1      -2.715 -32.956 -19.623  0.00  0.00    +0.011 C 
ATOM      2  C   UNL A   1      -3.353 -34.139 -20.050  0.00  0.00    +0.012 C 
ATOM      3  C   UNL A   1      -4.252 -34.114 -21.132  0.00  0.00    +0.016 C 
ATOM      4  C   UNL A   1      -5.087 -25.959 -21.720  0.00  0.00    +0.019 C 
ATOM      5  C   UNL A   1      -4.220 -24.878 -21.455  0.00  0.00    -0.115 C 
ATOM      6  C   UNL A   1      -2.861 -25.147 -21.212  0.00  0.00    +0.041 C 
ATOM      7  C   UNL A   1      -2.381 -26.464 -21.251  0.00  0.00    -0.025 C 
ATOM      8  C   UNL A   1      -3.081 -29.680 -22.666  0.00  0.00    +0.258 C 
ATOM      9  C   UNL A   1      -5.285 -29.676 -21.359  0.00  0.00    +0.301 C 
ATOM     10  C   UNL A   1      -4.635 -27.298 -21.749  0.00  0.00    +0.075 C 
ATOM     11  C   UNL A   1      -3.248 -27.533 -21.527  0.00  0.00    +0.031 C 
ATOM     12  C   UNL A   1      -4.289 -30.525 -22.189  0.00  0.00    -0.041 C 
ATOM     13  C   UNL A   1      -5.415 -32.635 -22.941  0.00  0.00    +0.059 C 
ATOM     14  N   UNL A   1      -5.547 -28.353 -21.960  0.00  0.00    -0.651 N 
ATOM     15  O   UNL A   1      -2.658 -28.779 -21.629  0.00  0.00    -0.351 OA
ATOM     16  C   UNL A   1      -4.494 -32.891 -21.774  0.00  0.00    -0.081 C 
ATOM     17  C   UNL A   1      -3.863 -31.725 -21.361  0.00  0.00    -0.068 C 
ATOM     18  C   UNL A   1      -2.970 -31.735 -20.278  0.00  0.00    +0.066 C 
ATOM     19 CL   UNL A   1      -3.028 -35.648 -19.226  0.00  0.00    -0.122 Cl
ATOM     20  C   UNL A   1      -4.992 -31.216 -23.401  0.00  0.00    +0.035 C 
ENDROOT
BRANCH   5  21
ATOM     21  C   UNL A   1      -4.742 -23.456 -21.427  0.00  0.00    +0.909 C 
ATOM     22  O   UNL A   1      -3.947 -22.559 -21.192  0.00  0.00    -0.830 OA
ATOM     23  O   UNL A   1      -5.929 -23.275 -21.647  0.00  0.00    -0.830 OA
ENDBRANCH   5  21
BRANCH  14  24
ATOM     24  C   UNL A   1      -6.921 -28.146 -22.465  0.00  0.00    +0.313 C 
BRANCH  24  25
ATOM     25  C   UNL A   1      -7.947 -27.876 -21.345  0.00  0.00    -0.027 C 
ATOM     26  C   UNL A   1      -9.432 -27.616 -21.767  0.00  0.00    +0.009 C 
ATOM     27  C   UNL A   1      -9.810 -28.209 -20.372  0.00  0.00    -0.021 C 
ATOM     28  C   UNL A   1      -8.527 -29.085 -20.535  0.00  0.00    +0.009 C 
ENDBRANCH  24  25
ENDBRANCH  14  24
TORSDOF 3
