########## Name: lig_27
########## Vina_BE: -8.54
########## MW: 279.205
########## clogP: -0.331
########## nonHatoms: 23
########## Vina_LE: -0.371
########## Vina_LipE: -8.209
########## Close_contacts: 0
########## Hydrophob_contacts: 22
########## HBonds: 1
########## Salt_Bridges: 0
########## Pi-Pi_Parallel: 0
########## Pi-Pi_Perpendicular: 0
########## Pi-Cation: 0
########## Halogen_Bonds: 0
@<TRIPOS>MOLECULE
lig_27.pdbqt
 23 25 0 0 0
SMALL
GASTEIGER

@<TRIPOS>ATOM
      1  CA       -26.4810   -7.8770  -20.0700 C.ar    1  UNL1        0.0410
      2  N        -26.4970   -6.5500  -20.4940 N.ar    1  UNL1       -0.2150
      3  C        -27.8150   -6.1640  -20.3590 C.ar    1  UNL1       -0.0400
      4  C        -28.3870   -4.9230  -20.6610 C.2     1  UNL1       -0.0330
      5  C        -29.7720   -4.7700  -20.4450 C.2     1  UNL1       -0.0360
      6  C        -30.5420   -5.8450  -19.9440 C.2     1  UNL1       -0.0710
      7  C        -29.9380   -7.0860  -19.6490 C.2     1  UNL1        0.0250
      8  C        -28.5590   -7.2210  -19.8650 C.ar    1  UNL1       -0.0710
      9  C        -27.7290   -8.3100  -19.6730 C.ar    1  UNL1       -0.1800
     10  H        -25.6950   -6.0400  -20.8330 H       1  UNL1        0.3100
     11  C        -25.2160   -8.6760  -20.0830 C.2     1  UNL1        0.8430
     12  O        -24.2920   -8.2340  -19.4130 O.co2   1  UNL1       -0.8210
     13  OXT      -25.1180   -9.7020  -20.7420 O.co2   1  UNL1       -0.8210
     14  C        -28.1130   -9.6800  -19.1490 C.3     1  UNL1        0.1040
     15  C        -28.6690  -10.5790  -20.2790 C.3     1  UNL1       -0.0260
     16  C        -30.2140  -10.6250  -20.3290 C.3     1  UNL1        0.2820
     17  O        -30.7800  -10.2290  -19.0590 O.2     1  UNL1       -0.3520
     18  C        -32.0430  -10.5860  -18.6430 C.2     1  UNL1        0.1340
     19  C        -33.1390  -10.6310  -19.5250 C.2     1  UNL1       -0.0120
     20  C        -34.4110  -10.9860  -19.0460 C.2     1  UNL1        0.0100
     21  C        -34.5940  -11.2810  -17.6840 C.2     1  UNL1       -0.0710
     22  C        -33.5040  -11.2200  -16.8000 C.2     1  UNL1        0.0100
     23  C        -32.2320  -10.8680  -17.2830 C.2     1  UNL1       -0.0120
@<TRIPOS>BOND
     1    10     2    1
     2    13    11   ar
     3     4     5    1
     4     4     3    2
     5     2     3   ar
     6     2     1   ar
     7     5     6    2
     8     3     8   ar
     9    16    15    1
    10    16    17    1
    11    15    14    1
    12    11     1    1
    13    11    12   ar
    14     1     9   ar
    15     6     7    1
    16     8     9   ar
    17     8     7    2
    18     9    14    1
    19    19    20    1
    20    19    18    2
    21    17    18    1
    22    20    21    2
    23    18    23    1
    24    21    22    1
    25    23    22    2
########## Name: lig_28
########## Vina_BE: -8.816
########## MW: 291.216
########## clogP: -0.176
########## nonHatoms: 24
########## Vina_LE: -0.367
########## Vina_LipE: -8.64
########## Close_contacts: 0
########## Hydrophob_contacts: 21
########## HBonds: 1
########## Salt_Bridges: 0
########## Pi-Pi_Parallel: 0
########## Pi-Pi_Perpendicular: 0
########## Pi-Cation: 0
########## Halogen_Bonds: 0
@<TRIPOS>MOLECULE
lig_28.pdbqt
 24 26 0 0 0
SMALL
GASTEIGER

@<TRIPOS>ATOM
      1  C        -27.8390   -8.0000  -19.6870 C.ar    1  UNL1       -0.1860
      2  CA       -26.5150   -7.6240  -20.1540 C.ar    1  UNL1        0.0480
      3  N        -26.5150   -6.2940  -20.5860 N.ar    1  UNL1       -0.2140
      4  C        -27.8020   -5.8140  -20.4180 C.ar    1  UNL1       -0.0430
      5  C        -28.2840   -4.5350  -20.7180 C.2     1  UNL1       -0.0330
      6  C        -29.6470   -4.2710  -20.4730 C.2     1  UNL1       -0.0390
      7  C        -30.4880   -5.2780  -19.9480 C.2     1  UNL1       -0.0730
      8  C        -29.9750   -6.5590  -19.6590 C.2     1  UNL1        0.0200
      9  C        -28.6160   -6.7990  -19.8980 C.ar    1  UNL1       -0.0730
     10  H        -25.7030   -5.8230  -20.9540 H       1  UNL1        0.3100
     11  C        -25.2690   -8.4430  -20.2050 C.2     1  UNL1        0.8380
     12  OXT      -25.1780   -9.3990  -20.9580 O.co2   1  UNL1       -0.8150
     13  O        -24.3650   -8.1000  -19.4550 O.co2   1  UNL1       -0.8150
     14  C        -28.1960   -9.3360  -19.0850 C.3     1  UNL1        0.0980
     15  C        -28.4620  -10.4220  -20.1560 C.3     1  UNL1        0.0250
     16  C        -29.9390  -10.8680  -20.2630 C.3     1  UNL1        0.2440
     17  O        -30.8010   -9.9450  -19.5650 O.2     1  UNL1       -0.3680
     18  C        -31.9000  -10.3890  -18.8680 C.2     1  UNL1        0.1200
     19  C        -31.7450  -10.7270  -17.5160 C.2     1  UNL1        0.0070
     20  C        -32.8450  -11.1780  -16.7670 C.2     1  UNL1       -0.0080
     21  C        -34.1080  -11.2740  -17.3740 C.2     1  UNL1       -0.0310
     22  C        -34.2700  -10.9140  -18.7220 C.2     1  UNL1       -0.0040
     23  C        -33.1710  -10.4630  -19.4790 C.2     1  UNL1       -0.0960
     24  C        -33.3720  -10.0810  -20.9400 C.3     1  UNL1        0.0900
@<TRIPOS>BOND
     1    12    11   ar
     2    10     3    1
     3    24    23    1
     4     5     6    1
     5     5     4    2
     6     3     4   ar
     7     3     2   ar
     8     6     7    2
     9     4     9   ar
    10    16    15    1
    11    16    17    1
    12    11     2    1
    13    11    13   ar
    14    15    14    1
    15     2     1   ar
    16     7     8    1
    17     9     1   ar
    18     9     8    2
    19     1    14    1
    20    17    18    1
    21    23    18    2
    22    23    22    1
    23    18    19    1
    24    22    21    2
    25    19    20    2
    26    21    20    1
########## Name: lig_30
########## Vina_BE: -8.927
########## MW: 291.216
########## clogP: -0.176
########## nonHatoms: 24
########## Vina_LE: -0.372
########## Vina_LipE: -8.751
########## Close_contacts: 1
########## Hydrophob_contacts: 33
########## HBonds: 2
########## Salt_Bridges: 0
########## Pi-Pi_Parallel: 0
########## Pi-Pi_Perpendicular: 0
########## Pi-Cation: 0
########## Halogen_Bonds: 0
@<TRIPOS>MOLECULE
lig_30.pdbqt
 24 26 0 0 0
SMALL
GASTEIGER

@<TRIPOS>ATOM
      1  C        -27.7360   -8.0930  -19.8080 C.ar    1  UNL1       -0.1930
      2  CA       -26.4910   -7.6450  -20.2720 C.ar    1  UNL1       -0.0370
      3  N        -26.6560   -6.3250  -20.7300 N.ar    1  UNL1       -0.2140
      4  C        -27.9720   -5.9560  -20.5560 C.ar    1  UNL1       -0.0420
      5  C        -28.5820   -4.7340  -20.8630 C.2     1  UNL1       -0.0300
      6  C        -29.9580   -4.6020  -20.5820 C.2     1  UNL1       -0.0380
      7  C        -30.6780   -5.6780  -20.0130 C.2     1  UNL1       -0.0670
      8  C        -30.0310   -6.8960  -19.7160 C.2     1  UNL1        0.0130
      9  C        -28.6620   -7.0010  -20.0020 C.ar    1  UNL1       -0.0730
     10  H        -25.9030   -5.7750  -21.1140 H       1  UNL1        0.3100
     11  C        -25.1790   -8.3540  -20.3080 C.2     1  UNL1        0.9270
     12  OXT      -24.5660   -8.5990  -19.2820 O.co2   1  UNL1       -0.8140
     13  O        -24.7680   -8.6640  -21.4190 O.co2   1  UNL1       -0.8140
     14  C        -28.0000   -9.4490  -19.1990 C.3     1  UNL1        0.0990
     15  C        -28.4430  -10.4980  -20.2440 C.3     1  UNL1        0.0220
     16  C        -29.9770  -10.5290  -20.4420 C.3     1  UNL1        0.2540
     17  O        -30.6410  -10.3100  -19.1800 O.2     1  UNL1       -0.3400
     18  C        -31.9950  -10.4860  -18.9770 C.2     1  UNL1        0.1530
     19  C        -32.8460  -10.2890  -20.0730 C.2     1  UNL1       -0.0370
     20  C        -34.2330  -10.4640  -19.9370 C.2     1  UNL1        0.0140
     21  C        -34.7710  -10.8410  -18.6960 C.2     1  UNL1       -0.0660
     22  C        -33.9280  -11.0430  -17.5900 C.2     1  UNL1       -0.0450
     23  C        -34.5050  -11.4550  -16.2460 C.3     1  UNL1        0.0690
     24  C        -32.5400  -10.8690  -17.7350 C.2     1  UNL1       -0.0500
@<TRIPOS>BOND
     1    13    11   ar
     2    10     3    1
     3     5     6    1
     4     5     4    2
     5     3     4   ar
     6     3     2   ar
     7     6     7    2
     8     4     9   ar
     9    16    15    1
    10    16    17    1
    11    11     2    1
    12    11    12   ar
    13     2     1   ar
    14    15    14    1
    15    19    20    1
    16    19    18    2
    17     7     8    1
    18     9     1   ar
    19     9     8    2
    20    20    21    2
    21     1    14    1
    22    17    18    1
    23    18    24    1
    24    21    22    1
    25    24    22    2
    26    22    23    1
########## Name: lig_31
########## Vina_BE: -9.435
########## MW: 348.211
########## clogP: 2.342
########## nonHatoms: 27
########## Vina_LE: -0.349
########## Vina_LipE: -11.777
########## Close_contacts: 1
########## Hydrophob_contacts: 24
########## HBonds: 1
########## Salt_Bridges: 0
########## Pi-Pi_Parallel: 0
########## Pi-Pi_Perpendicular: 0
########## Pi-Cation: 0
########## Halogen_Bonds: 0
@<TRIPOS>MOLECULE
lig_31.pdbqt
 27 29 0 0 0
SMALL
GASTEIGER

@<TRIPOS>ATOM
      1  C        -27.6040   -8.9740  -18.8630 C.3     1  UNL1        0.1040
      2  C        -27.4800   -7.7550  -19.7470 C.ar    1  UNL1       -0.1820
      3  C        -28.4980   -6.7640  -20.0130 C.ar    1  UNL1       -0.0710
      4  C        -29.8280   -6.6810  -19.5770 C.2     1  UNL1        0.0250
      5  C        -27.9590   -5.8030  -20.8240 C.ar    1  UNL1       -0.0390
      6  C        -30.5960   -5.5750  -19.9990 C.2     1  UNL1       -0.0680
      7  C        -30.0300   -4.5850  -20.8360 C.2     1  UNL1       -0.0330
      8  C        -28.6900   -4.6920  -21.2600 C.2     1  UNL1       -0.0310
      9  N        -26.6480   -6.1280  -21.0930 N.ar    1  UNL1       -0.2140
     10  CA       -26.3300   -7.3280  -20.4300 C.ar    1  UNL1       -0.0480
     11  H        -25.9830   -5.6140  -21.6520 H       1  UNL1        0.3110
     12  C        -24.9740   -7.9430  -20.5140 C.2     1  UNL1        0.9330
     13  OXT      -24.9010   -9.0060  -21.1120 O.co2   1  UNL1       -0.8230
     14  O        -24.0100   -7.4240  -19.9770 O.co2   1  UNL1       -0.8230
     15  C        -27.7270  -10.2810  -19.6800 C.3     1  UNL1       -0.0240
     16  C        -29.1590  -10.5440  -20.2060 C.3     1  UNL1        0.2880
     17  O        -30.1220  -10.1410  -19.2060 O.2     1  UNL1       -0.3460
     18  C        -31.4780  -10.2520  -19.4200 C.2     1  UNL1        0.1330
     19  C        -32.0660   -9.8520  -20.6300 C.2     1  UNL1        0.0660
     20  C        -33.4480  -10.0050  -20.8230 C.2     1  UNL1        0.0390
     21  C        -34.2440  -10.5550  -19.8040 C.2     1  UNL1       -0.0020
     22  C        -33.6670  -10.9560  -18.5800 C.2     1  UNL1       -0.1540
     23  C        -32.2780  -10.7870  -18.3980 C.2     1  UNL1        0.0190
     24  C        -34.5400  -11.5510  -17.4690 C.3     1  UNL1        0.6870
     25  F        -35.6820  -10.8500  -17.3060 F       1  UNL1       -0.2490
     26  F        -34.9050  -12.8280  -17.7260 F       1  UNL1       -0.2490
     27  F        -33.9220  -11.5700  -16.2660 F       1  UNL1       -0.2490
@<TRIPOS>BOND
     1    11     9    1
     2     8     7    2
     3     8     5    1
     4    13    12   ar
     5     9     5   ar
     6     9    10   ar
     7     7     6    1
     8     5     3   ar
     9    20    19    1
    10    20    21    2
    11    19    18    2
    12    12    10    1
    13    12    14   ar
    14    10     2   ar
    15    16    15    1
    16    16    17    1
    17     3     2   ar
    18     3     4    1
    19     6     4    2
    20    21    22    1
    21     2     1    1
    22    15     1    1
    23    18    17    1
    24    18    23    1
    25    22    23    2
    26    22    24    1
    27    26    24    1
    28    24    25    1
    29    24    27    1
########## Name: lig_32
########## Vina_BE: -8.969
########## MW: 291.216
########## clogP: -0.176
########## nonHatoms: 24
########## Vina_LE: -0.374
########## Vina_LipE: -8.793
########## Close_contacts: 1
########## Hydrophob_contacts: 24
########## HBonds: 2
########## Salt_Bridges: 0
########## Pi-Pi_Parallel: 0
########## Pi-Pi_Perpendicular: 0
########## Pi-Cation: 0
########## Halogen_Bonds: 0
@<TRIPOS>MOLECULE
lig_32.pdbqt
 24 26 0 0 0
SMALL
GASTEIGER

@<TRIPOS>ATOM
      1  C        -27.7050   -7.8680  -19.7900 C.ar    1  UNL1       -0.1930
      2  CA       -26.4420   -7.4880  -20.2650 C.ar    1  UNL1       -0.0370
      3  N        -26.5340   -6.1540  -20.7050 N.ar    1  UNL1       -0.2140
      4  C        -27.8170   -5.7020  -20.4870 C.ar    1  UNL1       -0.0430
      5  C        -28.3510   -4.4310  -20.7350 C.2     1  UNL1       -0.0300
      6  C        -29.7020   -4.2130  -20.3970 C.2     1  UNL1       -0.0380
      7  C        -30.4740   -5.2520  -19.8270 C.2     1  UNL1       -0.0670
      8  C        -29.9050   -6.5200  -19.5920 C.2     1  UNL1        0.0140
      9  C        -28.5610   -6.7120  -19.9380 C.ar    1  UNL1       -0.0720
     10  H        -25.7540   -5.6430  -21.0900 H       1  UNL1        0.3100
     11  C        -25.1700   -8.2680  -20.3200 C.2     1  UNL1        0.9270
     12  OXT      -24.5380   -8.5160  -19.3050 O.co2   1  UNL1       -0.8150
     13  O        -24.8010   -8.6120  -21.4340 O.co2   1  UNL1       -0.8150
     14  C        -28.0390   -9.2100  -19.1850 C.3     1  UNL1        0.0980
     15  C        -28.1420  -10.3260  -20.2510 C.3     1  UNL1        0.0230
     16  C        -29.5730  -10.8800  -20.4110 C.3     1  UNL1        0.2520
     17  O        -30.5080   -9.9010  -19.9190 O.2     1  UNL1       -0.3390
     18  C        -31.5760  -10.2710  -19.1380 C.2     1  UNL1        0.1480
     19  C        -32.8590  -10.4560  -19.6800 C.2     1  UNL1       -0.0390
     20  C        -33.9230  -10.8500  -18.8530 C.2     1  UNL1        0.0230
     21  C        -33.7120  -11.0630  -17.4780 C.2     1  UNL1       -0.1370
     22  C        -34.8660  -11.4870  -16.5850 C.3     1  UNL1        0.0600
     23  C        -32.4240  -10.8850  -16.9410 C.2     1  UNL1        0.0230
     24  C        -31.3600  -10.4950  -17.7710 C.2     1  UNL1       -0.0390
@<TRIPOS>BOND
     1    13    11   ar
     2    10     3    1
     3     5     4    2
     4     5     6    1
     5     3     4   ar
     6     3     2   ar
     7     4     9   ar
     8    16    15    1
     9    16    17    1
    10     6     7    2
    11    11     2    1
    12    11    12   ar
    13     2     1   ar
    14    15    14    1
    15     9     1   ar
    16     9     8    2
    17    17    18    1
    18     7     8    1
    19     1    14    1
    20    19    18    2
    21    19    20    1
    22    18    24    1
    23    20    21    2
    24    24    23    2
    25    21    23    1
    26    21    22    1
########## Name: lig_33
########## Vina_BE: -8.728
########## MW: 314.658
########## clogP: 0.432
########## nonHatoms: 24
########## Vina_LE: -0.364
########## Vina_LipE: -9.16
########## Close_contacts: 1
########## Hydrophob_contacts: 20
########## HBonds: 2
########## Salt_Bridges: 0
########## Pi-Pi_Parallel: 0
########## Pi-Pi_Perpendicular: 0
########## Pi-Cation: 0
########## Halogen_Bonds: 0
@<TRIPOS>MOLECULE
lig_33.pdbqt
 24 26 0 0 0
SMALL
GASTEIGER

@<TRIPOS>ATOM
      1  CA       -26.4820   -7.5650  -20.2430 C.ar    1  UNL1       -0.0480
      2  N        -26.5660   -6.2350  -20.6940 N.ar    1  UNL1       -0.2140
      3  C        -27.8480   -5.7740  -20.4830 C.ar    1  UNL1       -0.0400
      4  C        -28.3840   -4.5170  -20.7870 C.2     1  UNL1       -0.0310
      5  C        -29.7400   -4.2930  -20.4740 C.2     1  UNL1       -0.0350
      6  C        -30.5160   -5.3140  -19.8770 C.2     1  UNL1       -0.0700
      7  C        -29.9430   -6.5710  -19.5850 C.2     1  UNL1        0.0250
      8  C        -28.5920   -6.7670  -19.9040 C.ar    1  UNL1       -0.0710
      9  C        -27.7400   -7.9200  -19.7350 C.ar    1  UNL1       -0.1810
     10  H        -25.7890   -5.7410  -21.1090 H       1  UNL1        0.3100
     11  C        -25.2360   -8.3820  -20.3390 C.2     1  UNL1        0.9320
     12  O        -24.8080   -8.5780  -21.4670 O.co2   1  UNL1       -0.8210
     13  OXT      -24.6950   -8.8350  -19.3400 O.co2   1  UNL1       -0.8210
     14  C        -28.0650   -9.2720  -19.1560 C.3     1  UNL1        0.1060
     15  C        -28.1490  -10.3600  -20.2530 C.3     1  UNL1       -0.0250
     16  C        -29.5790  -10.8850  -20.5100 C.3     1  UNL1        0.2840
     17  O        -30.5660   -9.9620  -19.9950 O.2     1  UNL1       -0.3480
     18  C        -31.6180  -10.3300  -19.1860 C.2     1  UNL1        0.1390
     19  C        -31.3560  -10.5260  -17.8220 C.2     1  UNL1        0.0010
     20  C        -32.3940  -10.8750  -16.9410 C.2     1  UNL1        0.0380
     21  C        -33.7030  -11.0200  -17.4290 C.2     1  UNL1       -0.0310
     22 CL        -34.9990  -11.4530  -16.3330 Cl      1  UNL1       -0.1370
     23  C        -33.9740  -10.8180  -18.7910 C.2     1  UNL1        0.0380
     24  C        -32.9340  -10.4640  -19.6700 C.2     1  UNL1        0.0010
@<TRIPOS>BOND
     1    12    11   ar
     2    10     2    1
     3     4     3    2
     4     4     5    1
     5     2     3   ar
     6     2     1   ar
     7    16    15    1
     8    16    17    1
     9     3     8   ar
    10     5     6    2
    11    11     1    1
    12    11    13   ar
    13    15    14    1
    14     1     9   ar
    15    17    18    1
    16     8     9   ar
    17     8     7    2
    18     6     7    1
    19     9    14    1
    20    24    18    2
    21    24    23    1
    22    18    19    1
    23    23    21    2
    24    19    20    2
    25    21    20    1
    26    21    22    1
########## Name: lig_34
########## Vina_BE: -9.469
########## MW: 348.211
########## clogP: 2.342
########## nonHatoms: 27
########## Vina_LE: -0.351
########## Vina_LipE: -11.811
########## Close_contacts: 0
########## Hydrophob_contacts: 21
########## HBonds: 2
########## Salt_Bridges: 0
########## Pi-Pi_Parallel: 0
########## Pi-Pi_Perpendicular: 0
########## Pi-Cation: 0
########## Halogen_Bonds: 0
@<TRIPOS>MOLECULE
lig_34.pdbqt
 27 29 0 0 0
SMALL
GASTEIGER

@<TRIPOS>ATOM
      1  C        -27.6740   -8.8250  -19.0610 C.3     1  UNL1        0.1040
      2  C        -27.4870   -7.5110  -19.7850 C.ar    1  UNL1       -0.1820
      3  C        -28.4490   -6.4400  -19.9150 C.ar    1  UNL1       -0.0710
      4  C        -29.7700   -6.3390  -19.4590 C.2     1  UNL1        0.0250
      5  C        -27.8560   -5.4150  -20.6000 C.ar    1  UNL1       -0.0390
      6  C        -30.4740   -5.1470  -19.7250 C.2     1  UNL1       -0.0680
      7  C        -29.8550   -4.0900  -20.4310 C.2     1  UNL1       -0.0330
      8  C        -28.5240   -4.2160  -20.8790 C.2     1  UNL1       -0.0310
      9  N        -26.5650   -5.7740  -20.9180 N.ar    1  UNL1       -0.2140
     10  CA       -26.3140   -7.0640  -20.4140 C.ar    1  UNL1       -0.0480
     11  H        -25.8730   -5.2290  -21.4080 H       1  UNL1        0.3110
     12  C        -24.9930   -7.7380  -20.5810 C.2     1  UNL1        0.9330
     13  OXT      -24.8470   -8.3910  -21.6020 O.co2   1  UNL1       -0.8230
     14  O        -24.1330   -7.6650  -19.7170 O.co2   1  UNL1       -0.8230
     15  C        -27.4640  -10.0440  -19.9870 C.3     1  UNL1       -0.0240
     16  C        -28.7820  -10.7660  -20.3620 C.3     1  UNL1        0.2880
     17  O        -29.8830   -9.8300  -20.3010 O.2     1  UNL1       -0.3460
     18  C        -31.0720  -10.1380  -19.6740 C.2     1  UNL1        0.1330
     19  C        -32.2960  -10.1670  -20.3630 C.2     1  UNL1        0.0660
     20  C        -33.4790  -10.5190  -19.6910 C.2     1  UNL1        0.0390
     21  C        -33.4560  -10.8400  -18.3160 C.2     1  UNL1       -0.1370
     22  C        -32.2240  -10.7950  -17.6310 C.2     1  UNL1       -0.0190
     23  C        -31.0440  -10.4400  -18.3050 C.2     1  UNL1        0.0190
     24  C        -34.7320  -11.2480  -17.5690 C.3     1  UNL1        0.6870
     25  F        -34.9890  -12.5690  -17.6980 F       1  UNL1       -0.2490
     26  F        -34.6860  -10.9990  -16.2410 F       1  UNL1       -0.2490
     27  F        -35.8150  -10.5990  -18.0480 F       1  UNL1       -0.2490
@<TRIPOS>BOND
     1    13    12   ar
     2    11     9    1
     3     9     5   ar
     4     9    10   ar
     5     8     5    1
     6     8     7    2
     7     5     3   ar
     8    12    10    1
     9    12    14   ar
    10     7     6    1
    11    10     2   ar
    12    19    20    1
    13    19    18    2
    14    16    17    1
    15    16    15    1
    16    17    18    1
    17    15     1    1
    18     3     2   ar
    19     3     4    1
    20     2     1    1
    21     6     4    2
    22    20    21    2
    23    18    23    1
    24    21    22    1
    25    21    24    1
    26    23    22    2
    27    27    24    1
    28    25    24    1
    29    24    26    1
########## Name: lig_35
########## Vina_BE: -8.758
########## MW: 326.669
########## clogP: 0.587
########## nonHatoms: 25
########## Vina_LE: -0.35
########## Vina_LipE: -9.345
########## Close_contacts: 2
########## Hydrophob_contacts: 23
########## HBonds: 2
########## Salt_Bridges: 0
########## Pi-Pi_Parallel: 0
########## Pi-Pi_Perpendicular: 0
########## Pi-Cation: 0
########## Halogen_Bonds: 0
@<TRIPOS>MOLECULE
lig_35.pdbqt
 25 27 0 0 0
SMALL
GASTEIGER

@<TRIPOS>ATOM
      1  C        -27.2950   -7.5120  -19.9840 C.ar    1  UNL1       -0.1950
      2  CA       -26.2580   -6.9940  -20.7720 C.ar    1  UNL1       -0.0370
      3  N        -26.7260   -5.8090  -21.3690 N.ar    1  UNL1       -0.2140
      4  C        -28.0120   -5.5720  -20.9360 C.ar    1  UNL1       -0.0420
      5  C        -28.8460   -4.4870  -21.2320 C.2     1  UNL1       -0.0290
      6  C        -30.1210   -4.4610  -20.6300 C.2     1  UNL1       -0.0370
      7  C        -30.5210   -5.4970  -19.7560 C.2     1  UNL1       -0.0660
      8  C        -29.6540   -6.5750  -19.4800 C.2     1  UNL1        0.0110
      9  C        -28.3960   -6.5820  -20.0960 C.ar    1  UNL1       -0.0740
     10  H        -26.1620   -5.2390  -21.9810 H       1  UNL1        0.3110
     11  C        -24.8740   -7.5130  -20.9840 C.2     1  UNL1        0.9270
     12  OXT      -24.0940   -7.6330  -20.0520 O.co2   1  UNL1       -0.8140
     13  O        -24.5700   -7.7700  -22.1410 O.co2   1  UNL1       -0.8140
     14  C        -27.2070   -8.7640  -19.1440 C.3     1  UNL1        0.0980
     15  C        -27.4260  -10.0440  -19.9820 C.3     1  UNL1        0.0260
     16  C        -28.8990  -10.5000  -20.0130 C.3     1  UNL1        0.2600
     17  O        -29.5590  -10.0000  -18.8350 O.2     1  UNL1       -0.3380
     18  C        -30.8570  -10.3230  -18.5040 C.2     1  UNL1        0.1580
     19  C        -31.7980  -10.3590  -19.5420 C.2     1  UNL1       -0.0400
     20  C        -33.1460  -10.6710  -19.2840 C.2     1  UNL1       -0.0300
     21  C        -34.1520  -10.6920  -20.4260 C.3     1  UNL1        0.0910
     22  C        -33.5450  -10.9510  -17.9600 C.2     1  UNL1       -0.0360
     23  C        -32.6060  -10.9140  -16.9160 C.2     1  UNL1        0.0390
     24 CL        -35.2100  -11.3480  -17.5760 Cl      1  UNL1       -0.1280
     25  C        -31.2630  -10.5990  -17.1850 C.2     1  UNL1       -0.0260
@<TRIPOS>BOND
     1    13    11   ar
     2    10     3    1
     3     3     4   ar
     4     3     2   ar
     5     5     4    2
     6     5     6    1
     7    11     2    1
     8    11    12   ar
     9     4     9   ar
    10     2     1   ar
    11     6     7    2
    12    21    20    1
    13     9     1   ar
    14     9     8    2
    15    16    15    1
    16    16    17    1
    17     1    14    1
    18    15    14    1
    19     7     8    1
    20    19    20    1
    21    19    18    2
    22    20    22    2
    23    17    18    1
    24    18    25    1
    25    22    24    1
    26    22    23    1
    27    25    23    2
########## Name: lig_36
########## Vina_BE: -8.683
########## MW: 338.68
########## clogP: 0.668
########## nonHatoms: 26
########## Vina_LE: -0.334
########## Vina_LipE: -9.351
########## Close_contacts: 2
########## Hydrophob_contacts: 33
########## HBonds: 2
########## Salt_Bridges: 0
########## Pi-Pi_Parallel: 0
########## Pi-Pi_Perpendicular: 0
########## Pi-Cation: 0
########## Halogen_Bonds: 0
@<TRIPOS>MOLECULE
lig_36.pdbqt
 26 28 0 0 0
SMALL
GASTEIGER

@<TRIPOS>ATOM
      1  C        -27.4100   -7.8510  -19.8780 C.ar    1  UNL1       -0.1820
      2  CA       -26.2760   -7.2070  -20.5240 C.ar    1  UNL1        0.0400
      3  N        -26.6390   -5.9370  -20.9830 N.ar    1  UNL1       -0.2140
      4  C        -27.9650   -5.7490  -20.6500 C.ar    1  UNL1       -0.0400
      5  C        -28.7590   -4.6240  -20.9050 C.2     1  UNL1       -0.0310
      6  C        -30.1010   -4.6540  -20.4700 C.2     1  UNL1       -0.0350
      7  C        -30.6110   -5.7890  -19.8010 C.2     1  UNL1       -0.0700
      8  C        -29.7880   -6.9090  -19.5570 C.2     1  UNL1        0.0250
      9  C        -28.4580   -6.8590  -19.9960 C.ar    1  UNL1       -0.0700
     10  H        -26.0070   -5.3140  -21.4630 H       1  UNL1        0.3100
     11  C        -24.8890   -7.7140  -20.7350 C.2     1  UNL1        0.8430
     12  O        -24.1550   -7.9520  -19.7910 O.co2   1  UNL1       -0.8210
     13  OXT      -24.5530   -7.9090  -21.8950 O.co2   1  UNL1       -0.8210
     14  C        -27.4210   -9.2230  -19.2470 C.3     1  UNL1        0.1050
     15  C        -27.8410  -10.3220  -20.2520 C.3     1  UNL1       -0.0250
     16  C        -29.2850  -10.8170  -20.0300 C.3     1  UNL1        0.2860
     17  O        -29.8050  -10.1580  -18.8580 O.2     1  UNL1       -0.3480
     18  C        -31.0530  -10.4740  -18.3860 C.2     1  UNL1        0.1410
     19  C        -32.1450  -10.4320  -19.2650 C.2     1  UNL1       -0.0340
     20  C        -33.4440  -10.7350  -18.8140 C.2     1  UNL1       -0.0570
     21  C        -33.6360  -11.0700  -17.4550 C.2     1  UNL1       -0.0260
     22  C        -32.5430  -11.0960  -16.5720 C.2     1  UNL1        0.0580
     23 CL        -35.2260  -11.4420  -16.8100 Cl      1  UNL1       -0.1370
     24  C        -31.2510  -10.7960  -17.0360 C.2     1  UNL1        0.0360
     25  C        -34.6060  -10.6730  -19.8010 C.3     1  UNL1        0.0570
     26  C        -34.1260  -10.3970  -21.2400 C.3     1  UNL1        0.0110
@<TRIPOS>BOND
     1    13    11   ar
     2    10     3    1
     3    26    25    1
     4     3     4   ar
     5     3     2   ar
     6     5     4    2
     7     5     6    1
     8    11     2    1
     9    11    12   ar
    10     4     9   ar
    11     2     1   ar
    12     6     7    2
    13    15    16    1
    14    15    14    1
    15    16    17    1
    16     9     1   ar
    17     9     8    2
    18     1    14    1
    19     7     8    1
    20    25    20    1
    21    19    20    1
    22    19    18    2
    23    17    18    1
    24    20    21    2
    25    18    24    1
    26    21    23    1
    27    21    22    1
    28    24    22    2
########## Name: lig_37
########## Vina_BE: -8.761
########## MW: 338.68
########## clogP: 0.742
########## nonHatoms: 26
########## Vina_LE: -0.337
########## Vina_LipE: -9.503
########## Close_contacts: 0
########## Hydrophob_contacts: 24
########## HBonds: 2
########## Salt_Bridges: 0
########## Pi-Pi_Parallel: 0
########## Pi-Pi_Perpendicular: 0
########## Pi-Cation: 0
########## Halogen_Bonds: 0
@<TRIPOS>MOLECULE
lig_37.pdbqt
 26 28 0 0 0
SMALL
GASTEIGER

@<TRIPOS>ATOM
      1  C        -27.4180   -7.4120  -19.7660 C.ar    1  UNL1       -0.2010
      2  CA       -26.2570   -6.9110  -20.4850 C.ar    1  UNL1        0.0730
      3  N        -26.5340   -5.6480  -21.0190 N.ar    1  UNL1       -0.2220
      4  C        -27.8340   -5.3360  -20.6680 C.ar    1  UNL1       -0.0430
      5  C        -28.5500   -4.1760  -20.9890 C.2     1  UNL1       -0.0310
      6  C        -29.8770   -4.0730  -20.5270 C.2     1  UNL1       -0.0380
      7  C        -30.4550   -5.1160  -19.7670 C.2     1  UNL1       -0.0640
      8  C        -29.7110   -6.2750  -19.4610 C.2     1  UNL1        0.0190
      9  C        -28.3930   -6.3570  -19.9270 C.ar    1  UNL1       -0.0560
     10  H        -25.8740   -5.1110  -21.5610 H       1  UNL1        0.2980
     11  C        -24.9290   -7.5630  -20.6970 C.2     1  UNL1        0.8300
     12  O        -24.0470   -7.4910  -19.8560 O.co2   1  UNL1       -0.8100
     13  OXT      -24.7870   -8.1760  -21.7460 O.co2   1  UNL1       -0.8100
     14  C        -27.4840   -8.7520  -19.0790 C.3     1  UNL1        0.0940
     15  C        -27.2790   -9.9250  -20.0700 C.3     1  UNL1       -0.0200
     16  C        -28.5810  -10.7030  -20.3450 C.3     1  UNL1        0.2770
     17  O        -29.6690   -9.7650  -20.4660 O.2     1  UNL1       -0.3530
     18  C        -30.9110  -10.0740  -19.9690 C.2     1  UNL1        0.1400
     19  C        -32.0330  -10.1500  -20.8100 C.2     1  UNL1       -0.0100
     20  C        -33.2940  -10.4830  -20.2840 C.2     1  UNL1       -0.0400
     21  C        -34.4940  -10.5500  -21.2190 C.3     1  UNL1        0.0910
     22  C        -33.4220  -10.7550  -18.9040 C.2     1  UNL1       -0.0290
     23  C        -32.2910  -10.6980  -18.0590 C.2     1  UNL1       -0.0400
     24 CL        -34.9930  -11.1760  -18.2350 Cl      1  UNL1       -0.1380
     25  C        -31.0390  -10.3600  -18.6050 C.2     1  UNL1       -0.0100
     26  C        -32.4060  -10.9980  -16.5720 C.3     1  UNL1        0.0910
@<TRIPOS>BOND
     1    13    11   ar
     2    10     3    1
     3    21    20    1
     4     3     4   ar
     5     3     2   ar
     6     5     4    2
     7     5     6    1
     8    19    20    1
     9    19    18    2
    10    11     2    1
    11    11    12   ar
    12     4     9   ar
    13     6     7    2
    14     2     1   ar
    15    17    16    1
    16    17    18    1
    17    16    15    1
    18    20    22    2
    19    15    14    1
    20    18    25    1
    21     9     1   ar
    22     9     8    2
    23     7     8    1
    24     1    14    1
    25    22    24    1
    26    22    23    1
    27    25    23    2
    28    23    26    1
########## Name: lig_43
########## Vina_BE: -10.16
########## MW: 327.248
########## clogP: 1.685
########## nonHatoms: 27
########## Vina_LE: -0.376
########## Vina_LipE: -11.845
########## Close_contacts: 0
########## Hydrophob_contacts: 33
########## HBonds: 2
########## Salt_Bridges: 0
########## Pi-Pi_Parallel: 0
########## Pi-Pi_Perpendicular: 0
########## Pi-Cation: 0
########## Halogen_Bonds: 0
@<TRIPOS>MOLECULE
lig_43.pdbqt
 27 30 0 0 0
SMALL
GASTEIGER

@<TRIPOS>ATOM
      1  C        -27.9580   -8.9750  -19.0890 C.3     1  UNL1        0.1050
      2  C        -27.6890   -7.6690  -19.7990 C.ar    1  UNL1       -0.1800
      3  C        -28.6140   -6.5750  -19.9960 C.ar    1  UNL1       -0.0710
      4  C        -29.9610   -6.4440  -19.6350 C.2     1  UNL1        0.0250
      5  C        -27.9480   -5.5640  -20.6330 C.ar    1  UNL1       -0.0400
      6  C        -30.6160   -5.2340  -19.9500 C.2     1  UNL1       -0.0700
      7  C        -29.9220   -4.1920  -20.6080 C.2     1  UNL1       -0.0350
      8  C        -28.5660   -4.3500  -20.9590 C.2     1  UNL1       -0.0330
      9  N        -26.6470   -5.9520  -20.8570 N.ar    1  UNL1       -0.2140
     10  CA       -26.4610   -7.2470  -20.3370 C.ar    1  UNL1       -0.0480
     11  H        -25.9070   -5.4210  -21.2920 H       1  UNL1        0.3100
     12  C        -25.1420   -7.9420  -20.3990 C.2     1  UNL1        0.9320
     13  O        -24.7510   -8.2510  -21.5140 O.co2   1  UNL1       -0.8220
     14  OXT      -24.5150   -8.2020  -19.3860 O.co2   1  UNL1       -0.8220
     15  C        -27.6420  -10.2040  -19.9730 C.3     1  UNL1       -0.0240
     16  C        -28.8960  -10.8140  -20.6500 C.3     1  UNL1        0.2800
     17  O        -29.9850   -9.8630  -20.6020 O.2     1  UNL1       -0.3510
     18  C        -31.2100  -10.1810  -20.0520 C.2     1  UNL1        0.1230
     19  C        -32.3460  -10.1530  -20.8740 C.2     1  UNL1       -0.0090
     20  C        -33.6180  -10.4260  -20.3370 C.2     1  UNL1       -0.0040
     21  C        -33.7540  -10.7290  -18.9700 C.2     1  UNL1       -0.0700
     22  C        -35.0210  -10.9840  -18.4140 C.2     1  UNL1       -0.0070
     23  C        -32.6090  -10.7710  -18.1470 C.2     1  UNL1       -0.0050
     24  C        -35.1440  -11.2760  -17.0440 C.2     1  UNL1       -0.0330
     25  C        -34.0020  -11.3130  -16.2270 C.2     1  UNL1       -0.0250
     26  C        -32.7350  -11.0600  -16.7780 C.2     1  UNL1        0.0610
     27  C        -31.3430  -10.5100  -18.6920 C.2     1  UNL1        0.0260
@<TRIPOS>BOND
     1    13    12   ar
     2    11     9    1
     3     8     5    1
     4     8     7    2
     5    19    20    1
     6    19    18    2
     7     9     5   ar
     8     9    10   ar
     9    16    17    1
    10    16    15    1
    11     5     3   ar
    12     7     6    1
    13    17    18    1
    14    12    10    1
    15    12    14   ar
    16    10     2   ar
    17    20    21    2
    18    18    27    1
    19     3     2   ar
    20     3     4    1
    21    15     1    1
    22     6     4    2
    23     2     1    1
    24    21    22    1
    25    21    23    1
    26    27    23    2
    27    22    24    2
    28    23    26    1
    29    24    25    1
    30    26    25    2
########## Name: lig_46
########## Vina_BE: -9.728
########## MW: 315.238
########## clogP: 0.06
########## nonHatoms: 26
########## Vina_LE: -0.374
########## Vina_LipE: -9.788
########## Close_contacts: 1
########## Hydrophob_contacts: 29
########## HBonds: 2
########## Salt_Bridges: 0
########## Pi-Pi_Parallel: 0
########## Pi-Pi_Perpendicular: 0
########## Pi-Cation: 0
########## Halogen_Bonds: 0
@<TRIPOS>MOLECULE
lig_46.pdbqt
 26 29 0 0 0
SMALL
GASTEIGER

@<TRIPOS>ATOM
      1  CA       -26.4570   -7.4440  -20.2500 C.ar    1  UNL1        0.0410
      2  N        -26.5240   -6.1560  -20.7800 N.ar    1  UNL1       -0.2150
      3  C        -27.8310   -5.7690  -20.5770 C.ar    1  UNL1       -0.0400
      4  C        -28.4380   -4.5550  -20.9230 C.2     1  UNL1       -0.0330
      5  C        -29.8020   -4.3930  -20.6090 C.2     1  UNL1       -0.0360
      6  C        -30.5170   -5.4290  -19.9650 C.2     1  UNL1       -0.0710
      7  C        -29.8790   -6.6410  -19.6280 C.2     1  UNL1        0.0250
      8  C        -28.5220   -6.7870  -19.9470 C.ar    1  UNL1       -0.0710
      9  C        -27.6690   -7.8550  -19.7310 C.ar    1  UNL1       -0.1800
     10  H        -25.7530   -5.6650  -21.2080 H       1  UNL1        0.3100
     11  C        -25.1750   -8.2120  -20.2950 C.2     1  UNL1        0.8430
     12  OXT      -24.8310   -8.6240  -21.3940 O.co2   1  UNL1       -0.8210
     13  O        -24.5400   -8.4450  -19.2790 O.co2   1  UNL1       -0.8210
     14  C        -28.0360   -9.1640  -19.0510 C.3     1  UNL1        0.1040
     15  C        -27.8140  -10.3950  -19.9570 C.3     1  UNL1       -0.0250
     16  C        -29.1010  -10.8660  -20.6810 C.3     1  UNL1        0.2810
     17  O        -30.1490   -9.8930  -20.4850 O.2     1  UNL1       -0.3520
     18  C        -31.3510  -10.2050  -19.8820 C.2     1  UNL1        0.1360
     19  C        -32.5050  -10.2250  -20.6920 C.2     1  UNL1       -0.0540
     20  C        -33.7670  -10.5230  -20.1420 C.2     1  UNL1        0.0120
     21  C        -33.8490  -10.8030  -18.7710 C.2     1  UNL1       -0.1440
     22  C        -32.7150  -10.7950  -17.9720 C.2     1  UNL1       -0.0520
     23  C        -35.0860  -11.1430  -17.9730 C.3     1  UNL1        0.0490
     24  C        -31.4530  -10.5010  -18.5050 C.2     1  UNL1        0.0400
     25  C        -33.0380  -11.1300  -16.5370 C.3     1  UNL1        0.0880
     26  C        -34.5200  -11.5920  -16.5980 C.3     1  UNL1       -0.0140
@<TRIPOS>BOND
     1    12    11   ar
     2    10     2    1
     3     4     5    1
     4     4     3    2
     5     2     3   ar
     6     2     1   ar
     7    19    20    1
     8    19    18    2
     9    16    17    1
    10    16    15    1
    11     5     6    2
    12     3     8   ar
    13    17    18    1
    14    11     1    1
    15    11    13   ar
    16     1     9   ar
    17    20    21    2
    18     6     7    1
    19    15    14    1
    20     8     9   ar
    21     8     7    2
    22    18    24    1
    23     9    14    1
    24    21    23    1
    25    21    22    1
    26    24    22    2
    27    23    26    1
    28    22    25    1
    29    26    25    1
########## Name: lig_47
########## Vina_BE: -9.471
########## MW: 329.244
########## clogP: 0.864
########## nonHatoms: 27
########## Vina_LE: -0.351
########## Vina_LipE: -10.335
########## Close_contacts: 1
########## Hydrophob_contacts: 18
########## HBonds: 2
########## Salt_Bridges: 0
########## Pi-Pi_Parallel: 0
########## Pi-Pi_Perpendicular: 0
########## Pi-Cation: 0
########## Halogen_Bonds: 0
@<TRIPOS>MOLECULE
lig_47.pdbqt
 27 30 0 0 0
SMALL
GASTEIGER

@<TRIPOS>ATOM
      1  C        -27.9360   -8.8010  -18.8870 C.3     1  UNL1        0.0930
      2  C        -27.6640   -7.5750  -19.7310 C.ar    1  UNL1       -0.1990
      3  C        -28.5740   -6.4860  -20.0080 C.ar    1  UNL1       -0.0570
      4  C        -29.8950   -6.2690  -19.5900 C.2     1  UNL1        0.0210
      5  C        -27.9240   -5.5760  -20.7950 C.ar    1  UNL1       -0.0420
      6  C        -30.5400   -5.0870  -20.0130 C.2     1  UNL1       -0.0640
      7  C        -29.8620   -4.1530  -20.8300 C.2     1  UNL1       -0.0370
      8  C        -28.5300   -4.3930  -21.2300 C.2     1  UNL1       -0.0300
      9  N        -26.6450   -6.0200  -21.0320 N.ar    1  UNL1       -0.2230
     10  CA       -26.4530   -7.2450  -20.3650 C.ar    1  UNL1       -0.0140
     11  H        -25.9170   -5.5570  -21.5570 H       1  UNL1        0.2970
     12  C        -25.1410   -7.9640  -20.3970 C.2     1  UNL1        0.9180
     13  OXT      -24.8670   -8.5360  -21.4400 O.co2   1  UNL1       -0.8120
     14  O        -24.4000   -7.9900  -19.4280 O.co2   1  UNL1       -0.8120
     15  C        -27.6170  -10.1180  -19.6340 C.3     1  UNL1       -0.0190
     16  C        -28.8060  -10.6680  -20.4610 C.3     1  UNL1        0.2750
     17  O        -29.9200   -9.7470  -20.3900 O.2     1  UNL1       -0.3530
     18  C        -31.1550  -10.1240  -19.9050 C.2     1  UNL1        0.1180
     19  C        -32.2550  -10.1370  -20.7760 C.2     1  UNL1       -0.0080
     20  C        -33.5340  -10.4770  -20.2960 C.2     1  UNL1       -0.0380
     21  C        -33.7370  -10.8010  -18.9430 C.2     1  UNL1        0.3580
     22  N        -34.9760  -11.1010  -18.5030 N.2     1  UNL1       -0.6790
     23  C        -32.6200  -10.7940  -18.0770 C.2     1  UNL1       -0.1170
     24  C        -35.1430  -11.3910  -17.1990 C.2     1  UNL1        0.3890
     25  C        -34.0880  -11.3970  -16.2730 C.2     1  UNL1       -0.1390
     26  C        -32.7920  -11.0910  -16.7160 C.2     1  UNL1        0.1450
     27  C        -31.3400  -10.4780  -18.5600 C.2     1  UNL1        0.0340
@<TRIPOS>BOND
     1    11     9    1
     2    13    12   ar
     3     8     7    2
     4     8     5    1
     5     9     5   ar
     6     9    10   ar
     7     7     6    1
     8     5     3   ar
     9    19    20    1
    10    19    18    2
    11    16    17    1
    12    16    15    1
    13    12    10    1
    14    12    14   ar
    15    17    18    1
    16    10     2   ar
    17    20    21    2
    18     6     4    2
    19     3     2   ar
    20     3     4    1
    21    18    27    1
    22     2     1    1
    23    15     1    1
    24    21    22    1
    25    21    23    1
    26    27    23    2
    27    22    24    2
    28    23    26    1
    29    24    25    1
    30    26    25    2
########## Name: lig_48
########## Vina_BE: -9.009
########## MW: 318.241
########## clogP: 1.356
########## nonHatoms: 27
########## Vina_LE: -0.334
########## Vina_LipE: -10.365
########## Close_contacts: 1
########## Hydrophob_contacts: 21
########## HBonds: 2
########## Salt_Bridges: 0
########## Pi-Pi_Parallel: 0
########## Pi-Pi_Perpendicular: 0
########## Pi-Cation: 0
########## Halogen_Bonds: 0
@<TRIPOS>MOLECULE
lig_48.pdbqt
 27 30 0 0 0
SMALL
GASTEIGER

@<TRIPOS>ATOM
      1  C        -28.0220   -9.2400  -18.9930 C.3     1  UNL1        0.1070
      2  C        -27.7450   -7.9090  -19.6430 C.ar    1  UNL1       -0.1800
      3  C        -28.5830   -6.7570  -19.8910 C.ar    1  UNL1       -0.0710
      4  C        -29.9310   -6.5430  -19.5770 C.2     1  UNL1        0.0260
      5  C        -27.8400   -5.7910  -20.5400 C.ar    1  UNL1       -0.0400
      6  C        -30.5120   -5.3110  -19.9420 C.2     1  UNL1       -0.0710
      7  C        -29.7480   -4.3240  -20.6060 C.2     1  UNL1       -0.0360
      8  C        -28.3920   -4.5590  -20.9140 C.2     1  UNL1       -0.0330
      9  N        -26.5460   -6.2320  -20.7440 N.ar    1  UNL1       -0.2150
     10  CA       -26.4640   -7.5220  -20.2120 C.ar    1  UNL1        0.0420
     11  H        -25.7750   -5.7620  -21.1950 H       1  UNL1        0.3100
     12  C        -25.1920   -8.3020  -20.2830 C.2     1  UNL1        0.8440
     13  O        -24.8460   -8.6680  -21.3990 O.co2   1  UNL1       -0.8220
     14  OXT      -24.5510   -8.5680  -19.2790 O.co2   1  UNL1       -0.8220
     15  C        -27.8970  -10.4150  -19.9950 C.3     1  UNL1       -0.0260
     16  C        -29.2180  -10.7760  -20.7140 C.3     1  UNL1        0.2890
     17  O        -30.2480   -9.7970  -20.4590 O.2     1  UNL1       -0.3500
     18  C        -31.5460  -10.0970  -20.1060 C.2     1  UNL1        0.1940
     19  C        -32.5180  -10.0750  -21.1260 C.2     1  UNL1       -0.0790
     20  C        -33.8660  -10.4080  -20.8630 C.2     1  UNL1        0.0210
     21  C        -34.2620  -10.7870  -19.5670 C.2     1  UNL1       -0.0830
     22  C        -33.2830  -10.8210  -18.5680 C.2     1  UNL1       -0.0070
     23  N        -33.4600  -11.1610  -17.2390 N.pl3   1  UNL1       -0.2530
     24  C        -31.9570  -10.4900  -18.8150 C.2     1  UNL1       -0.1320
     25  C        -32.1900  -11.0030  -16.6990 C.2     1  UNL1        0.0400
     26  C        -31.2670  -10.6150  -17.6220 C.2     1  UNL1        0.0740
     27  H        -34.3180  -11.3800  -16.7620 H       1  UNL1        0.2770
@<TRIPOS>BOND
     1    13    12   ar
     2    11     9    1
     3    19    20    1
     4    19    18    2
     5     8     7    2
     6     8     5    1
     7    20    21    2
     8     9     5   ar
     9     9    10   ar
    10    16    17    1
    11    16    15    1
    12     7     6    1
    13     5     3   ar
    14    17    18    1
    15    12    10    1
    16    12    14   ar
    17    10     2   ar
    18    18    24    1
    19    15     1    1
    20     6     4    2
    21     3     2   ar
    22     3     4    1
    23     2     1    1
    24    21    22    1
    25    24    22    2
    26    24    26    1
    27    22    23    1
    28    26    25    2
    29    23    27    1
    30    23    25    1
########## Name: lig_49
########## Vina_BE: -8.875
########## MW: 362.122
########## clogP: 3.003
########## nonHatoms: 26
########## Vina_LE: -0.341
########## Vina_LipE: -11.878
########## Close_contacts: 1
########## Hydrophob_contacts: 18
########## HBonds: 1
########## Salt_Bridges: 0
########## Pi-Pi_Parallel: 0
########## Pi-Pi_Perpendicular: 0
########## Pi-Cation: 0
########## Halogen_Bonds: 0
@<TRIPOS>MOLECULE
lig_49.pdbqt
 26 28 0 0 0
SMALL
GASTEIGER

@<TRIPOS>ATOM
      1  C        -31.1150  -10.1290  -19.7050 C.ar    1  UNL1       -0.1740
      2  CA       -30.0840  -10.0690  -18.6830 C.ar    1  UNL1        0.0510
      3  N        -30.6260  -10.3590  -17.4310 N.ar    1  UNL1       -0.2090
      4  C        -31.9630  -10.6390  -17.6250 C.ar    1  UNL1       -0.0400
      5  C        -32.8860  -11.0170  -16.6420 C.2     1  UNL1       -0.0230
      6  C        -34.2050  -11.2900  -17.0460 C.2     1  UNL1       -0.0280
      7  C        -34.5660  -11.1850  -18.4060 C.2     1  UNL1       -0.0470
      8  C        -33.6210  -10.8040  -19.3820 C.2     1  UNL1        0.0560
      9 CL        -34.1370  -10.7270  -21.0550 Cl      1  UNL1       -0.1430
     10  C        -32.3040  -10.5250  -18.9620 C.ar    1  UNL1       -0.0600
     11  H        -30.0830  -10.3820  -16.5810 H       1  UNL1        0.3140
     12  C        -28.6310   -9.7690  -18.8280 C.2     1  UNL1        0.8390
     13  O        -28.2340   -8.7580  -18.2630 O.co2   1  UNL1       -0.8100
     14  OXT      -27.8930  -10.5140  -19.4500 O.co2   1  UNL1       -0.8100
     15  C        -30.8540   -9.8380  -21.1640 C.3     1  UNL1        0.1160
     16  C        -30.2980   -8.4090  -21.3800 C.3     1  UNL1        0.0410
     17  C        -31.1480   -7.3170  -20.7030 C.3     1  UNL1        0.2120
     18  O        -30.4050   -6.7640  -19.6020 O.2     1  UNL1       -0.3330
     19  C        -29.6710   -5.6180  -19.7750 C.2     1  UNL1        0.1530
     20  C        -28.2960   -5.6820  -20.0470 C.2     1  UNL1       -0.0300
     21  C        -27.5520   -4.5010  -20.2380 C.2     1  UNL1       -0.0340
     22  C        -26.0630   -4.5870  -20.5400 C.3     1  UNL1        0.0910
     23  C        -28.2080   -3.2530  -20.1550 C.2     1  UNL1       -0.0280
     24  C        -29.5880   -3.1940  -19.8940 C.2     1  UNL1        0.0370
     25 CL        -27.3340   -1.7500  -20.3840 Cl      1  UNL1       -0.1260
     26  C        -30.3190   -4.3790  -19.7090 C.2     1  UNL1       -0.0160
@<TRIPOS>BOND
     1    16    15    1
     2    16    17    1
     3    15     1    1
     4     9     8    1
     5    17    18    1
     6    22    21    1
     7    25    23    1
     8    21    23    2
     9    21    20    1
    10    23    24    1
    11    20    19    2
    12    24    26    2
    13    19    26    1
    14    19    18    1
    15     1    10   ar
    16     1     2   ar
    17    14    12   ar
    18     8    10    1
    19     8     7    2
    20    10     4   ar
    21    12     2    1
    22    12    13   ar
    23     2     3   ar
    24     7     6    1
    25     4     3   ar
    26     4     5    1
    27     3    11    1
    28     6     5    2
########## Name: lig_50
########## Vina_BE: -8.554
########## MW: 374.133
########## clogP: 3.158
########## nonHatoms: 27
########## Vina_LE: -0.317
########## Vina_LipE: -11.712
########## Close_contacts: 0
########## Hydrophob_contacts: 22
########## HBonds: 1
########## Salt_Bridges: 0
########## Pi-Pi_Parallel: 0
########## Pi-Pi_Perpendicular: 0
########## Pi-Cation: 0
########## Halogen_Bonds: 0
@<TRIPOS>MOLECULE
lig_50.pdbqt
 27 29 0 0 0
SMALL
GASTEIGER

@<TRIPOS>ATOM
      1  C        -27.3470   -6.4840  -20.5220 C.ar    1  UNL1       -0.1640
      2  CA       -26.0480   -5.9930  -20.7220 C.ar    1  UNL1       -0.0500
      3  N        -26.0940   -4.5960  -20.5920 N.ar    1  UNL1       -0.2090
      4  C        -27.3920   -4.2140  -20.3480 C.ar    1  UNL1       -0.0360
      5  C        -27.8800   -2.9120  -20.1810 C.2     1  UNL1       -0.0240
      6  C        -29.2620   -2.7540  -19.9660 C.2     1  UNL1       -0.0220
      7  C        -30.1080   -3.8850  -19.9310 C.2     1  UNL1       -0.0480
      8  C        -29.5880   -5.1850  -20.1050 C.2     1  UNL1        0.0590
      9 CL        -30.7030   -6.5360  -20.0830 Cl      1  UNL1       -0.1270
     10  C        -28.1990   -5.3250  -20.3060 C.ar    1  UNL1       -0.0630
     11  H        -25.2810   -4.0070  -20.6960 H       1  UNL1        0.3140
     12  C        -24.7770   -6.7140  -21.0270 C.2     1  UNL1        0.9330
     13  OXT      -24.4730   -6.7740  -22.2100 O.co2   1  UNL1       -0.8180
     14  O        -24.1080   -7.2330  -20.1490 O.co2   1  UNL1       -0.8180
     15  C        -27.7090   -7.9530  -20.5410 C.3     1  UNL1        0.1110
     16  C        -27.4100   -8.6480  -19.1880 C.3     1  UNL1       -0.0170
     17  C        -28.3660   -9.8220  -18.9030 C.3     1  UNL1        0.2780
     18  O        -29.4540   -9.7690  -19.8460 O.2     1  UNL1       -0.3480
     19  C        -30.7210  -10.1330  -19.4620 C.2     1  UNL1        0.1430
     20  C        -30.9970  -10.4980  -18.1360 C.2     1  UNL1       -0.0060
     21  C        -32.3040  -10.8530  -17.7550 C.2     1  UNL1       -0.0430
     22  C        -32.5740  -11.2500  -16.3090 C.3     1  UNL1        0.0850
     23  C        -33.3390  -10.8290  -18.7160 C.2     1  UNL1       -0.0300
     24  C        -33.0650  -10.4450  -20.0470 C.2     1  UNL1       -0.0430
     25 CL        -34.9770  -11.2690  -18.2520 Cl      1  UNL1       -0.1380
     26  C        -31.7520  -10.0940  -20.4090 C.2     1  UNL1       -0.0060
     27  C        -34.1690  -10.3990  -21.0950 C.3     1  UNL1        0.0850
@<TRIPOS>BOND
     1    13    12   ar
     2    27    24    1
     3    12     2    1
     4    12    14   ar
     5     2     3   ar
     6     2     1   ar
     7    11     3    1
     8     3     4   ar
     9    15     1    1
    10    15    16    1
    11     1    10   ar
    12    26    24    1
    13    26    19    2
    14     4    10   ar
    15     4     5    1
    16    10     8    1
    17     5     6    2
    18     8     9    1
    19     8     7    2
    20    24    23    2
    21     6     7    1
    22    18    19    1
    23    18    17    1
    24    19    20    1
    25    16    17    1
    26    23    25    1
    27    23    21    1
    28    20    21    2
    29    21    22    1
########## Name: lig_52
########## Vina_BE: -8.984
########## MW: 362.122
########## clogP: 1.35
########## nonHatoms: 26
########## Vina_LE: -0.346
########## Vina_LipE: -10.334
########## Close_contacts: 1
########## Hydrophob_contacts: 22
########## HBonds: 1
########## Salt_Bridges: 0
########## Pi-Pi_Parallel: 0
########## Pi-Pi_Perpendicular: 0
########## Pi-Cation: 0
########## Halogen_Bonds: 1
@<TRIPOS>MOLECULE
lig_52.pdbqt
 26 28 0 0 0
SMALL
GASTEIGER

@<TRIPOS>ATOM
      1  C        -27.8800   -8.1450  -19.7640 C.ar    1  UNL1       -0.1740
      2  CA       -26.5200   -7.7820  -20.1160 C.ar    1  UNL1        0.0510
      3  N        -26.4580   -6.4350  -20.4870 N.ar    1  UNL1       -0.2090
      4  C        -27.7310   -5.9170  -20.3340 C.ar    1  UNL1       -0.0400
      5  C        -28.1440   -4.5940  -20.5280 C.2     1  UNL1       -0.0230
      6  C        -29.4960   -4.2820  -20.2740 C.2     1  UNL1       -0.1420
      7 CL        -30.0650   -2.6420  -20.4930 Cl      1  UNL1       -0.1430
      8  C        -30.3910   -5.2810  -19.8350 C.2     1  UNL1       -0.0570
      9  C        -29.9480   -6.6070  -19.6480 C.2     1  UNL1        0.1800
     10  C        -28.6030   -6.8990  -19.9090 C.ar    1  UNL1       -0.0600
     11  H        -25.6070   -5.9620  -20.7530 H       1  UNL1        0.3140
     12  C        -25.2930   -8.6300  -20.0900 C.2     1  UNL1        0.8390
     13  OXT      -24.5070   -8.5570  -19.1600 O.co2   1  UNL1       -0.8100
     14  O        -25.1230   -9.3650  -21.0510 O.co2   1  UNL1       -0.8100
     15  C        -28.3020   -9.4960  -19.2420 C.3     1  UNL1        0.1160
     16  C        -28.2490  -10.5900  -20.3340 C.3     1  UNL1        0.0410
     17  C        -29.6130  -10.8380  -21.0100 C.3     1  UNL1        0.2120
     18  O        -30.5470   -9.8530  -20.5280 O.2     1  UNL1       -0.3330
     19  C        -31.7100  -10.1730  -19.8630 C.2     1  UNL1        0.1530
     20  C        -31.6020  -10.5470  -18.5160 C.2     1  UNL1       -0.0300
     21  C        -32.7410  -10.9120  -17.7750 C.2     1  UNL1       -0.0340
     22  C        -32.5970  -11.3190  -16.3170 C.3     1  UNL1        0.0910
     23  C        -34.0030  -10.9000  -18.4050 C.2     1  UNL1       -0.0280
     24  C        -34.1150  -10.5360  -19.7570 C.2     1  UNL1        0.0370
     25 CL        -35.4590  -11.3440  -17.5330 Cl      1  UNL1       -0.1260
     26  C        -32.9720  -10.1740  -20.4880 C.2     1  UNL1       -0.0160
@<TRIPOS>BOND
     1    14    12   ar
     2    17    18    1
     3    17    16    1
     4    11     3    1
     5    18    19    1
     6     5     4    2
     7     5     6    1
     8     7     6    1
     9    26    19    2
    10    26    24    1
    11     3     4   ar
    12     3     2   ar
    13     4    10   ar
    14    16    15    1
    15     6     8    2
    16     2    12    1
    17     2     1   ar
    18    12    13   ar
    19    10     1   ar
    20    10     9    2
    21    19    20    1
    22     8     9    1
    23     1    15    1
    24    24    23    2
    25    20    21    2
    26    23    21    1
    27    23    25    1
    28    21    22    1
########## Name: lig_53
########## Vina_BE: -8.87
########## MW: 374.133
########## clogP: 1.505
########## nonHatoms: 27
########## Vina_LE: -0.329
########## Vina_LipE: -10.375
########## Close_contacts: 1
########## Hydrophob_contacts: 21
########## HBonds: 2
########## Salt_Bridges: 0
########## Pi-Pi_Parallel: 0
########## Pi-Pi_Perpendicular: 0
########## Pi-Cation: 0
########## Halogen_Bonds: 1
@<TRIPOS>MOLECULE
lig_53.pdbqt
 27 29 0 0 0
SMALL
GASTEIGER

@<TRIPOS>ATOM
      1  C        -27.4390   -7.5610  -19.6920 C.ar    1  UNL1       -0.1640
      2  CA       -26.2270   -7.2510  -20.3250 C.ar    1  UNL1       -0.0500
      3  N        -26.3790   -6.0000  -20.9510 N.ar    1  UNL1       -0.2090
      4  C        -27.6600   -5.5440  -20.7260 C.ar    1  UNL1       -0.0360
      5  C        -28.2550   -4.3560  -21.1690 C.2     1  UNL1       -0.0240
      6  C        -29.5970   -4.1240  -20.8070 C.2     1  UNL1       -0.1370
      7 CL        -30.3980   -2.6580  -21.3300 Cl      1  UNL1       -0.1270
      8  C        -30.3020   -5.0670  -20.0250 C.2     1  UNL1       -0.0580
      9  C        -29.6710   -6.2550  -19.5960 C.2     1  UNL1        0.1840
     10  C        -28.3350   -6.4630  -19.9680 C.ar    1  UNL1       -0.0630
     11  H        -25.6460   -5.5510  -21.4800 H       1  UNL1        0.3140
     12  C        -24.9610   -8.0390  -20.3870 C.2     1  UNL1        0.9330
     13  O        -24.1990   -8.0880  -19.4330 O.co2   1  UNL1       -0.8180
     14  OXT      -24.7500   -8.6320  -21.4350 O.co2   1  UNL1       -0.8180
     15  C        -27.7070   -8.8250  -18.9140 C.3     1  UNL1        0.1110
     16  C        -27.3680  -10.0970  -19.7320 C.3     1  UNL1       -0.0170
     17  C        -28.5970  -10.6780  -20.4580 C.3     1  UNL1        0.2780
     18  O        -29.6610   -9.7050  -20.4200 O.2     1  UNL1       -0.3480
     19  C        -30.8970  -10.0510  -19.9310 C.2     1  UNL1        0.1430
     20  C        -32.0150  -10.1310  -20.7760 C.2     1  UNL1       -0.0060
     21  C        -33.2700  -10.5020  -20.2600 C.2     1  UNL1       -0.0430
     22  C        -34.4670  -10.5720  -21.1980 C.3     1  UNL1        0.0850
     23  C        -33.3940  -10.8070  -18.8860 C.2     1  UNL1       -0.0300
     24  C        -32.2660  -10.7460  -18.0380 C.2     1  UNL1       -0.0430
     25 CL        -34.9560  -11.2760  -18.2300 Cl      1  UNL1       -0.1380
     26  C        -31.0200  -10.3710  -18.5740 C.2     1  UNL1       -0.0060
     27  C        -32.3770  -11.0810  -16.5580 C.3     1  UNL1        0.0850
@<TRIPOS>BOND
     1    11     3    1
     2    14    12   ar
     3     7     6    1
     4    22    21    1
     5     5     6    1
     6     5     4    2
     7     3     4   ar
     8     3     2   ar
     9     6     8    2
    10    20    21    1
    11    20    19    2
    12     4    10   ar
    13    17    18    1
    14    17    16    1
    15    18    19    1
    16    12     2    1
    17    12    13   ar
    18     2     1   ar
    19    21    23    2
    20     8     9    1
    21    10     1   ar
    22    10     9    2
    23    19    26    1
    24    16    15    1
    25     1    15    1
    26    23    25    1
    27    23    24    1
    28    26    24    2
    29    24    27    1
########## Name: lig_56
########## Vina_BE: -8.912
########## MW: 349.683
########## clogP: 0.609
########## nonHatoms: 26
########## Vina_LE: -0.343
########## Vina_LipE: -9.521
########## Close_contacts: 0
########## Hydrophob_contacts: 24
########## HBonds: 2
########## Salt_Bridges: 0
########## Pi-Pi_Parallel: 0
########## Pi-Pi_Perpendicular: 0
########## Pi-Cation: 0
########## Halogen_Bonds: 0
@<TRIPOS>MOLECULE
lig_56.pdbqt
 26 28 0 0 0
SMALL
GASTEIGER

@<TRIPOS>ATOM
      1  C        -27.4440   -7.3280  -19.8620 C.ar    1  UNL1       -0.1970
      2  C        -26.3050   -6.8400  -20.6300 C.ar    1  UNL1        0.0660
      3  N        -26.6260   -5.5940  -21.2150 N.ar    1  UNL1       -0.0970
      4  C        -25.7860   -4.7730  -22.1000 C.3     1  UNL1        0.1750
      5  C        -27.9150   -5.2780  -20.7970 C.ar    1  UNL1       -0.0460
      6  C        -28.6620   -4.1190  -21.0720 C.2     1  UNL1       -0.0230
      7  C        -29.9500   -4.0070  -20.5130 C.2     1  UNL1       -0.0410
      8  C        -30.4680   -5.0340  -19.6940 C.2     1  UNL1       -0.0640
      9  C        -29.7010   -6.1860  -19.4290 C.2     1  UNL1        0.0090
     10  C        -28.4260   -6.2810  -19.9990 C.ar    1  UNL1       -0.0690
     11  C        -24.9750   -7.5240  -20.7840 C.2     1  UNL1        0.8400
     12  O        -24.1290   -7.4270  -19.9100 O.co2   1  UNL1       -0.8120
     13  O        -24.7470   -8.1520  -21.8090 O.co2   1  UNL1       -0.8120
     14  C        -27.4890   -8.6230  -19.0870 C.3     1  UNL1        0.0980
     15  C        -27.2290   -9.8550  -19.9840 C.3     1  UNL1        0.0270
     16  C        -28.5120  -10.6300  -20.3460 C.3     1  UNL1        0.2560
     17  O        -29.6230   -9.7120  -20.3310 O.2     1  UNL1       -0.3370
     18  C        -30.8710  -10.0740  -19.8800 C.2     1  UNL1        0.1610
     19  C        -31.0150  -10.3650  -18.5180 C.2     1  UNL1       -0.0360
     20  C        -32.2630  -10.7410  -17.9920 C.2     1  UNL1       -0.0350
     21  C        -32.3840  -11.0700  -16.5110 C.3     1  UNL1        0.0850
     22  C        -33.3830  -10.8100  -18.8490 C.2     1  UNL1       -0.0350
     23  C        -33.2480  -10.5090  -20.2220 C.2     1  UNL1       -0.0350
     24 CL        -34.9530  -11.2670  -18.2020 Cl      1  UNL1       -0.1280
     25  C        -31.9870  -10.1440  -20.7310 C.2     1  UNL1       -0.0360
     26  C        -34.4450  -10.5760  -21.1610 C.3     1  UNL1        0.0850
@<TRIPOS>BOND
     1     4     3    1
     2    13    11   ar
     3     3     5   ar
     4     3     2   ar
     5    26    23    1
     6     6     5    2
     7     6     7    1
     8     5    10   ar
     9    11     2    1
    10    11    12   ar
    11    25    23    1
    12    25    18    2
    13     2     1   ar
    14     7     8    2
    15    16    17    1
    16    16    15    1
    17    17    18    1
    18    23    22    2
    19    10     1   ar
    20    10     9    2
    21    15    14    1
    22    18    19    1
    23     1    14    1
    24     8     9    1
    25    22    24    1
    26    22    20    1
    27    19    20    2
    28    20    21    1
########## Name: lig_58
########## Vina_BE: -8.97
########## MW: 385.136
########## clogP: 1.372
########## nonHatoms: 27
########## Vina_LE: -0.332
########## Vina_LipE: -10.342
########## Close_contacts: 1
########## Hydrophob_contacts: 19
########## HBonds: 2
########## Salt_Bridges: 0
########## Pi-Pi_Parallel: 0
########## Pi-Pi_Perpendicular: 0
########## Pi-Cation: 0
########## Halogen_Bonds: 1
@<TRIPOS>MOLECULE
lig_58.pdbqt
 27 29 0 0 0
SMALL
GASTEIGER

@<TRIPOS>ATOM
      1  C        -27.4980   -7.6150  -19.6120 C.ar    1  UNL1       -0.1800
      2  C        -26.2530   -7.2730  -20.2890 C.ar    1  UNL1        0.0600
      3  N        -26.3770   -6.0040  -20.8970 N.ar    1  UNL1       -0.0930
      4  C        -25.3590   -5.2730  -21.6670 C.3     1  UNL1        0.1810
      5  C        -27.6690   -5.5590  -20.6310 C.ar    1  UNL1       -0.0420
      6  C        -28.2790   -4.3600  -21.0390 C.2     1  UNL1        0.0010
      7  C        -29.6140   -4.1290  -20.6520 C.2     1  UNL1        0.0120
      8 CL        -30.4120   -2.6480  -21.1390 Cl      1  UNL1       -0.1500
      9  C        -30.3140   -5.0780  -19.8800 C.2     1  UNL1       -0.0410
     10  C        -29.6850   -6.2760  -19.4840 C.2     1  UNL1        0.0370
     11  C        -28.3560   -6.4870  -19.8760 C.ar    1  UNL1       -0.0650
     12  C        -25.0130   -8.1210  -20.3580 C.2     1  UNL1        0.8390
     13  O        -24.7660   -8.7260  -21.3890 O.co2   1  UNL1       -0.8140
     14  O        -24.2690   -8.2090  -19.3920 O.co2   1  UNL1       -0.8140
     15  C        -27.7540   -8.9000  -18.8660 C.3     1  UNL1        0.1100
     16  C        -27.3990  -10.1470  -19.7140 C.3     1  UNL1       -0.0230
     17  C        -28.6280  -10.7570  -20.4170 C.3     1  UNL1        0.2740
     18  O        -29.6930   -9.7850  -20.4260 O.2     1  UNL1       -0.3490
     19  C        -30.9300  -10.1050  -19.9240 C.2     1  UNL1        0.1360
     20  C        -32.0550  -10.1930  -20.7590 C.2     1  UNL1       -0.0030
     21  C        -33.3100  -10.5370  -20.2280 C.2     1  UNL1       -0.0420
     22  C        -34.5140  -10.6160  -21.1560 C.3     1  UNL1        0.0890
     23  C        -33.4300  -10.8070  -18.8470 C.2     1  UNL1       -0.0280
     24  C        -32.2970  -10.7370  -18.0060 C.2     1  UNL1       -0.0420
     25 CL        -34.9940  -11.2390  -18.1700 Cl      1  UNL1       -0.1370
     26  C        -31.0500  -10.3900  -18.5580 C.2     1  UNL1       -0.0030
     27  C        -32.4020  -11.0350  -16.5170 C.3     1  UNL1        0.0890
@<TRIPOS>BOND
     1     4     3    1
     2    13    12   ar
     3    22    21    1
     4     8     7    1
     5     6     7    1
     6     6     5    2
     7     3     5   ar
     8     3     2   ar
     9    20    21    1
    10    20    19    2
    11     7     9    2
    12     5    11   ar
    13    18    17    1
    14    18    19    1
    15    17    16    1
    16    12     2    1
    17    12    14   ar
    18     2     1   ar
    19    21    23    2
    20    19    26    1
    21     9    10    1
    22    11     1   ar
    23    11    10    2
    24    16    15    1
    25     1    15    1
    26    23    25    1
    27    23    24    1
    28    26    24    2
    29    24    27    1
########## Name: lig_60
########## Vina_BE: -8.841
########## MW: 355.73
########## clogP: 1.475
########## nonHatoms: 25
########## Vina_LE: -0.354
########## Vina_LipE: -10.316
########## Close_contacts: 1
########## Hydrophob_contacts: 24
########## HBonds: 2
########## Salt_Bridges: 0
########## Pi-Pi_Parallel: 0
########## Pi-Pi_Perpendicular: 0
########## Pi-Cation: 0
########## Halogen_Bonds: 0
@<TRIPOS>MOLECULE
lig_60.pdbqt
 25 27 0 0 0
SMALL
GASTEIGER

@<TRIPOS>ATOM
      1  C        -27.7310   -8.6350  -18.8780 C.3     1  UNL1        0.0980
      2  C        -27.4840   -7.4250  -19.7550 C.ar    1  UNL1       -0.1170
      3  C        -26.2700   -7.1760  -20.4110 C.ar    1  UNL1       -0.0730
      4  S        -26.2920   -5.6850  -21.3920 S.2     1  UNL1        0.0590
      5  C        -27.9460   -5.3740  -20.8600 C.ar    1  UNL1       -0.1180
      6  C        -28.7180   -4.2580  -21.2150 C.2     1  UNL1        0.0270
      7  C        -28.4370   -6.3570  -20.0210 C.ar    1  UNL1       -0.0690
      8  C        -30.0190   -4.1380  -20.6940 C.2     1  UNL1       -0.0420
      9  C        -30.5270   -5.1330  -19.8360 C.2     1  UNL1       -0.0390
     10  C        -29.7370   -6.2480  -19.4980 C.2     1  UNL1        0.0130
     11  C        -25.0220   -7.9910  -20.3680 C.2     1  UNL1        0.9090
     12  O        -24.2900   -7.9690  -19.3920 O.co2   1  UNL1       -0.8140
     13  O        -24.7470   -8.6500  -21.3580 O.co2   1  UNL1       -0.8140
     14  C        -27.3630   -9.9650  -19.5780 C.3     1  UNL1        0.0340
     15  C        -28.5350  -10.5880  -20.3630 C.3     1  UNL1        0.2510
     16  O        -29.6510   -9.6790  -20.3070 O.2     1  UNL1       -0.3350
     17  C        -30.8940  -10.0590  -19.8580 C.2     1  UNL1        0.1600
     18  C        -31.0310  -10.3620  -18.4990 C.2     1  UNL1       -0.0360
     19  C        -32.2710  -10.7660  -17.9730 C.2     1  UNL1       -0.0340
     20  C        -32.3820  -11.1120  -16.4950 C.3     1  UNL1        0.0860
     21  C        -33.3910  -10.8480  -18.8290 C.2     1  UNL1       -0.0340
     22  C        -33.2620  -10.5320  -20.1990 C.2     1  UNL1       -0.0340
     23 CL        -34.9500  -11.3430  -18.1850 Cl      1  UNL1       -0.1270
     24  C        -32.0110  -10.1400  -20.7080 C.2     1  UNL1       -0.0360
     25  C        -34.4600  -10.6130  -21.1380 C.3     1  UNL1        0.0860
@<TRIPOS>BOND
     1     4     5   ar
     2     4     3   ar
     3    13    11   ar
     4     6     5    2
     5     6     8    1
     6    25    22    1
     7     5     7   ar
     8    24    22    1
     9    24    17    2
    10     8     9    2
    11     3    11    1
    12     3     2   ar
    13    11    12   ar
    14    15    16    1
    15    15    14    1
    16    16    17    1
    17    22    21    2
    18     7     2   ar
    19     7    10    2
    20    17    18    1
    21     9    10    1
    22     2     1    1
    23    14     1    1
    24    21    23    1
    25    21    19    1
    26    18    19    2
    27    19    20    1
########## Name: lig_61
########## Vina_BE: -8.661
########## MW: 391.183
########## clogP: 3.892
########## nonHatoms: 26
########## Vina_LE: -0.333
########## Vina_LipE: -12.553
########## Close_contacts: 0
########## Hydrophob_contacts: 20
########## HBonds: 1
########## Salt_Bridges: 0
########## Pi-Pi_Parallel: 0
########## Pi-Pi_Perpendicular: 0
########## Pi-Cation: 0
########## Halogen_Bonds: 0
@<TRIPOS>MOLECULE
lig_61.pdbqt
 26 28 0 0 0
SMALL
GASTEIGER

@<TRIPOS>ATOM
      1  C        -27.3570   -6.4030  -20.4750 C.ar    1  UNL1       -0.1210
      2  C        -26.0290   -5.9950  -20.6750 C.ar    1  UNL1       -0.3280
      3  S        -25.7820   -4.2470  -20.5270 S.2     1  UNL1        0.2480
      4  C        -27.5150   -4.0470  -20.2700 C.ar    1  UNL1       -0.0670
      5  C        -28.1370   -2.8020  -20.0950 C.2     1  UNL1        0.0330
      6  C        -29.5300   -2.7530  -19.9340 C.2     1  UNL1       -0.0310
      7  C        -30.2750   -3.9440  -19.9680 C.2     1  UNL1       -0.0180
      8  C        -29.6400   -5.1890  -20.1460 C.2     1  UNL1        0.0490
      9 CL        -30.7000   -6.5840  -20.2250 Cl      1  UNL1       -0.1180
     10  C        -28.2290   -5.2380  -20.2820 C.ar    1  UNL1       -0.0270
     11  C        -24.8270   -6.8130  -20.9810 C.2     1  UNL1        0.9220
     12  O        -24.0930   -7.0670  -20.0410 O.co2   1  UNL1       -0.8090
     13  O        -24.5750   -7.1780  -22.1160 O.co2   1  UNL1       -0.8090
     14  C        -27.7290   -7.8700  -20.4390 C.3     1  UNL1        0.1020
     15  C        -27.6310   -8.4660  -19.0130 C.3     1  UNL1       -0.0120
     16  C        -28.3880   -9.8010  -18.8800 C.3     1  UNL1        0.2760
     17  O        -29.4450   -9.8410  -19.8620 O.2     1  UNL1       -0.3520
     18  C        -30.7300  -10.1510  -19.4880 C.2     1  UNL1        0.1360
     19  C        -31.7800  -10.1420  -20.4200 C.2     1  UNL1       -0.0060
     20  C        -33.0860  -10.4770  -20.0200 C.2     1  UNL1       -0.0400
     21  C        -34.2080  -10.4510  -21.0490 C.3     1  UNL1        0.0910
     22  C        -33.3320  -10.8350  -18.6760 C.2     1  UNL1       -0.0280
     23  C        -32.2720  -10.8630  -17.7430 C.2     1  UNL1       -0.0400
     24 CL        -34.9600  -11.2570  -18.1640 Cl      1  UNL1       -0.1390
     25  C        -30.9730  -10.5230  -18.1610 C.2     1  UNL1       -0.0060
     26  C        -32.5140  -11.2570  -16.2910 C.3     1  UNL1        0.0910
@<TRIPOS>BOND
     1    13    11   ar
     2    21    20    1
     3    11     2    1
     4    11    12   ar
     5     2     3   ar
     6     2     1   ar
     7     3     4   ar
     8     1    14    1
     9     1    10   ar
    10    14    15    1
    11    19    20    1
    12    19    18    2
    13    10     4   ar
    14    10     8    1
    15     4     5    1
    16     9     8    1
    17     8     7    2
    18     5     6    2
    19    20    22    2
    20     7     6    1
    21    17    18    1
    22    17    16    1
    23    18    25    1
    24    15    16    1
    25    22    24    1
    26    22    23    1
    27    25    23    2
    28    23    26    1
########## Name: lig_63
########## Vina_BE: -8.81
########## MW: 391.183
########## clogP: 2.239
########## nonHatoms: 26
########## Vina_LE: -0.339
########## Vina_LipE: -11.049
########## Close_contacts: 1
########## Hydrophob_contacts: 19
########## HBonds: 2
########## Salt_Bridges: 0
########## Pi-Pi_Parallel: 0
########## Pi-Pi_Perpendicular: 0
########## Pi-Cation: 0
########## Halogen_Bonds: 1
@<TRIPOS>MOLECULE
lig_63.pdbqt
 26 28 0 0 0
SMALL
GASTEIGER

@<TRIPOS>ATOM
      1  C        -27.4490   -7.6020  -19.6860 C.ar    1  UNL1       -0.1210
      2  C        -26.1710   -7.4770  -20.2440 C.ar    1  UNL1       -0.3280
      3  S        -25.9250   -5.9660  -21.1460 S.2     1  UNL1        0.2480
      4  C        -27.5970   -5.5120  -20.8010 C.ar    1  UNL1       -0.0670
      5  C        -28.2320   -4.3380  -21.2370 C.2     1  UNL1        0.0330
      6  C        -29.5790   -4.1270  -20.8910 C.2     1  UNL1       -0.1500
      7 CL        -30.4010   -2.6750  -21.4220 Cl      1  UNL1       -0.1180
      8  C        -30.2700   -5.0840  -20.1230 C.2     1  UNL1       -0.0270
      9  C        -29.6150   -6.2540  -19.6940 C.2     1  UNL1        0.1770
     10  C        -28.2670   -6.4530  -20.0400 C.ar    1  UNL1       -0.0270
     11  C        -25.0380   -8.4330  -20.1800 C.2     1  UNL1        0.9220
     12  O        -24.3440   -8.3860  -19.1790 O.co2   1  UNL1       -0.8090
     13  O        -24.8130   -9.2000  -21.0990 O.co2   1  UNL1       -0.8090
     14  C        -27.8740   -8.7860  -18.8500 C.3     1  UNL1        0.1020
     15  C        -27.4970  -10.1240  -19.5250 C.3     1  UNL1       -0.0120
     16  C        -28.6510  -10.6940  -20.3700 C.3     1  UNL1        0.2760
     17  O        -29.7270   -9.7370  -20.3870 O.2     1  UNL1       -0.3520
     18  C        -30.9560  -10.0940  -19.8950 C.2     1  UNL1        0.1360
     19  C        -31.0820  -10.4020  -18.5370 C.2     1  UNL1       -0.0060
     20  C        -32.3310  -10.7690  -18.0030 C.2     1  UNL1       -0.0400
     21  C        -32.4440  -11.1130  -16.5240 C.3     1  UNL1        0.0910
     22  C        -33.4600  -10.8140  -18.8510 C.2     1  UNL1       -0.0280
     23  C        -33.3360  -10.4970  -20.2210 C.2     1  UNL1       -0.0400
     24 CL        -35.0280  -11.2680  -18.1960 Cl      1  UNL1       -0.1390
     25  C        -32.0760  -10.1360  -20.7360 C.2     1  UNL1       -0.0060
     26  C        -34.5410  -10.5390  -21.1500 C.3     1  UNL1        0.0910
@<TRIPOS>BOND
     1     7     6    1
     2     5     6    1
     3     5     4    2
     4    26    23    1
     5     3     4   ar
     6     3     2   ar
     7    13    11   ar
     8     6     8    2
     9     4    10   ar
    10    25    23    1
    11    25    18    2
    12    17    16    1
    13    17    18    1
    14    16    15    1
    15     2    11    1
    16     2     1   ar
    17    23    22    2
    18    11    12   ar
    19     8     9    1
    20    10     9    2
    21    10     1   ar
    22    18    19    1
    23     1    14    1
    24    15    14    1
    25    22    24    1
    26    22    20    1
    27    19    20    2
    28    20    21    1
########## Name: lig_65
########## Vina_BE: -8.785
########## MW: 391.183
########## clogP: 2.165
########## nonHatoms: 26
########## Vina_LE: -0.338
########## Vina_LipE: -10.95
########## Close_contacts: 1
########## Hydrophob_contacts: 23
########## HBonds: 2
########## Salt_Bridges: 0
########## Pi-Pi_Parallel: 0
########## Pi-Pi_Perpendicular: 0
########## Pi-Cation: 0
########## Halogen_Bonds: 0
@<TRIPOS>MOLECULE
lig_65.pdbqt
 26 28 0 0 0
SMALL
GASTEIGER

@<TRIPOS>ATOM
      1  C        -27.2360   -7.2650  -19.9270 C.ar    1  UNL1       -0.1210
      2  C        -26.0820   -6.8010  -20.5700 C.ar    1  UNL1       -0.3280
      3  S        -26.2360   -5.1500  -21.2140 S.2     1  UNL1        0.2480
      4  C        -27.9120   -5.1030  -20.6470 C.ar    1  UNL1       -0.0670
      5  C        -28.8140   -4.0380  -20.8140 C.2     1  UNL1       -0.0920
      6 CL        -28.3350   -2.5620  -21.6290 Cl      1  UNL1       -0.1180
      7  C        -30.1230   -4.1680  -20.3180 C.2     1  UNL1       -0.0250
      8  C        -30.5160   -5.3540  -19.6690 C.2     1  UNL1       -0.0270
      9  C        -29.6000   -6.4120  -19.5120 C.2     1  UNL1        0.1770
     10  C        -28.2910   -6.2680  -20.0040 C.ar    1  UNL1       -0.0270
     11  C        -24.7920   -7.5060  -20.7750 C.2     1  UNL1        0.9220
     12  O        -24.5530   -7.8870  -21.9070 O.co2   1  UNL1       -0.8090
     13  O        -24.0330   -7.7050  -19.8420 O.co2   1  UNL1       -0.8090
     14  C        -27.3290   -8.6230  -19.2750 C.3     1  UNL1        0.1020
     15  C        -27.2780   -9.7610  -20.3190 C.3     1  UNL1       -0.0120
     16  C        -28.5530  -10.6240  -20.3030 C.3     1  UNL1        0.2760
     17  O        -29.6930   -9.7660  -20.5050 O.2     1  UNL1       -0.3520
     18  C        -30.9100  -10.0900  -19.9600 C.2     1  UNL1        0.1360
     19  C        -32.0210  -10.1860  -20.8050 C.2     1  UNL1       -0.0060
     20  C        -33.2840  -10.5260  -20.2870 C.2     1  UNL1       -0.0400
     21  C        -34.4820  -10.6100  -21.2230 C.3     1  UNL1        0.0910
     22  C        -33.4210  -10.7780  -18.9040 C.2     1  UNL1       -0.0280
     23  C        -32.2990  -10.6910  -18.0500 C.2     1  UNL1       -0.0400
     24 CL        -34.9930  -11.2070  -18.2430 Cl      1  UNL1       -0.1390
     25  C        -31.0450  -10.3460  -18.5880 C.2     1  UNL1       -0.0060
     26  C        -32.4250  -10.9630  -16.5570 C.3     1  UNL1        0.0910
@<TRIPOS>BOND
     1    12    11   ar
     2     6     5    1
     3    21    20    1
     4     3     4   ar
     5     3     2   ar
     6     5     4    2
     7     5     7    1
     8    19    20    1
     9    19    18    2
    10    11     2    1
    11    11    13   ar
    12     4    10   ar
    13     2     1   ar
    14    17    16    1
    15    17    18    1
    16    15    16    1
    17    15    14    1
    18     7     8    2
    19    20    22    2
    20    10     1   ar
    21    10     9    2
    22    18    25    1
    23     1    14    1
    24     8     9    1
    25    22    24    1
    26    22    23    1
    27    25    23    2
    28    23    26    1
########## Name: lig_67
########## Vina_BE: -8.757
########## MW: 339.665
########## clogP: 1.007
########## nonHatoms: 25
########## Vina_LE: -0.35
########## Vina_LipE: -9.764
########## Close_contacts: 0
########## Hydrophob_contacts: 25
########## HBonds: 2
########## Salt_Bridges: 0
########## Pi-Pi_Parallel: 0
########## Pi-Pi_Perpendicular: 0
########## Pi-Cation: 0
########## Halogen_Bonds: 0
@<TRIPOS>MOLECULE
lig_67.pdbqt
 25 27 0 0 0
SMALL
GASTEIGER

@<TRIPOS>ATOM
      1  C        -27.7550   -8.8910  -19.0150 C.3     1  UNL1        0.0980
      2  C        -27.6230   -7.5460  -19.6830 C.ar    1  UNL1       -0.2120
      3  C        -26.4120   -7.0380  -20.3090 C.ar    1  UNL1        0.0090
      4  O        -26.6150   -5.7840  -20.8520 O.2     1  UNL1        0.0590
      5  C        -27.9280   -5.4700  -20.6030 C.ar    1  UNL1       -0.1550
      6  C        -28.6040   -4.2980  -20.9700 C.2     1  UNL1        0.0130
      7  C        -28.5670   -6.4810  -19.9150 C.ar    1  UNL1       -0.0580
      8  C        -29.9640   -4.1760  -20.6180 C.2     1  UNL1       -0.0330
      9  C        -30.6180   -5.2130  -19.9150 C.2     1  UNL1       -0.0480
     10  C        -29.9180   -6.3830  -19.5560 C.2     1  UNL1        0.0180
     11  C        -25.0710   -7.6720  -20.4340 C.2     1  UNL1        0.9360
     12  O        -24.3520   -7.7940  -19.4530 O.co2   1  UNL1       -0.7970
     13  O        -24.7300   -8.0730  -21.5360 O.co2   1  UNL1       -0.7970
     14  C        -27.3870  -10.0540  -19.9710 C.3     1  UNL1       -0.0200
     15  C        -28.6240  -10.8240  -20.4700 C.3     1  UNL1        0.2790
     16  O        -29.7140   -9.8950  -20.6400 O.2     1  UNL1       -0.3530
     17  C        -30.9430  -10.1620  -20.0910 C.2     1  UNL1        0.1350
     18  C        -32.0960  -10.2170  -20.8910 C.2     1  UNL1       -0.0070
     19  C        -33.3460  -10.5070  -20.3170 C.2     1  UNL1       -0.0400
     20  C        -34.5800  -10.5540  -21.2070 C.3     1  UNL1        0.0930
     21  C        -33.4330  -10.7550  -18.9290 C.2     1  UNL1       -0.0270
     22  C        -32.2710  -10.7180  -18.1260 C.2     1  UNL1       -0.0400
     23 CL        -34.9890  -11.1210  -18.1980 Cl      1  UNL1       -0.1370
     24  C        -31.0300  -10.4230  -18.7190 C.2     1  UNL1       -0.0070
     25  C        -32.3420  -10.9930  -16.6300 C.3     1  UNL1        0.0930
@<TRIPOS>BOND
     1    13    11   ar
     2    20    19    1
     3     6     8    1
     4     6     5    2
     5    18    19    1
     6    18    17    2
     7     4     5   ar
     8     4     3   ar
     9    16    15    1
    10    16    17    1
    11     8     9    2
    12     5     7   ar
    13    15    14    1
    14    11     3    1
    15    11    12   ar
    16    19    21    2
    17     3     2   ar
    18    17    24    1
    19    14     1    1
    20     9    10    1
    21     7     2   ar
    22     7    10    2
    23     2     1    1
    24    21    23    1
    25    21    22    1
    26    24    22    2
    27    22    25    1
########## Name: ligand
########## Vina_BE: -12.117
########## MW: 373.704
########## clogP: 1.841
########## nonHatoms: 28
########## Vina_LE: -0.433
########## Vina_LipE: -13.958
########## Close_contacts: 0
########## Hydrophob_contacts: 27
########## HBonds: 1
########## Salt_Bridges: 0
########## Pi-Pi_Parallel: 0
########## Pi-Pi_Perpendicular: 0
########## Pi-Cation: 0
########## Halogen_Bonds: 0
@<TRIPOS>MOLECULE
ligand.pdbqt
 28 32 0 0 0
SMALL
GASTEIGER

@<TRIPOS>ATOM
      1  C        -32.2140  -11.1630  -16.8070 C.2     1  UNL1        0.0110
      2  C        -33.5460  -11.1630  -17.2700 C.2     1  UNL1        0.0120
      3  C        -33.8490  -10.7220  -18.5720 C.2     1  UNL1        0.0160
      4  C        -26.5850   -7.3010  -20.3250 C.2     1  UNL1        0.0190
      5  C        -25.2610   -7.5910  -19.9330 C.2     1  UNL1       -0.1150
      6  C        -25.0070   -8.7970  -19.2540 C.2     1  UNL1        0.0410
      7  C        -26.0510   -9.6960  -18.9910 C.2     1  UNL1       -0.0250
      8  C        -29.2860  -10.6850  -20.1720 C.3     1  UNL1        0.2580
      9  C        -30.1120   -8.3230  -19.6160 C.3     1  UNL1        0.3010
     10  C        -27.6590   -8.1800  -20.0590 C.2     1  UNL1        0.0750
     11  C        -27.3640   -9.4050  -19.3950 C.2     1  UNL1        0.0310
     12  C        -30.5230   -9.7690  -19.9950 C.3     1  UNL1       -0.0410
     13  C        -32.8940   -9.7760  -20.8090 C.3     1  UNL1        0.0590
     14  N        -28.9760   -7.8240  -20.4170 N.pl3   1  UNL1       -0.6510
     15  O        -28.3000  -10.3960  -19.1660 O.2     1  UNL1       -0.3510
     16  C        -32.7990  -10.2890  -19.3940 C.2     1  UNL1       -0.0810
     17  C        -31.4850  -10.2940  -18.9440 C.2     1  UNL1       -0.0680
     18  C        -31.1710  -10.7230  -17.6450 C.2     1  UNL1        0.0660
     19 CL        -34.8330  -11.7100  -16.2180 Cl      1  UNL1       -0.1220
     20  C        -31.4160   -9.7960  -21.2770 C.3     1  UNL1        0.0350
     21  C        -24.1350   -6.6220  -20.2310 C.2     1  UNL1        0.9090
     22  O        -23.4610   -6.2230  -19.2950 O.co2   1  UNL1       -0.8300
     23  O        -23.9530   -6.2930  -21.3920 O.co2   1  UNL1       -0.8300
     24  C        -29.2910   -6.7130  -21.3410 C.3     1  UNL1        0.3130
     25  C        -30.1660   -5.6170  -20.6990 C.3     1  UNL1       -0.0270
     26  C        -29.7080   -5.0370  -19.3190 C.3     1  UNL1        0.0090
     27  C        -30.4350   -3.7260  -19.7600 C.3     1  UNL1       -0.0210
     28  C        -30.0390   -4.1420  -21.2120 C.3     1  UNL1        0.0090
@<TRIPOS>BOND
     1    23    21   ar
     2    24    25    1
     3    24    14    1
     4    20    13    1
     5    20    12    1
     6    28    25    1
     7    28    27    1
     8    13    16    1
     9    25    26    1
    10    14    10    1
    11    14     9    1
    12     4    10    2
    13     4     5    1
    14    21     5    1
    15    21    22   ar
    16     8    12    1
    17     8    15    1
    18    10    11    1
    19    12     9    1
    20    12    17    1
    21     5     6    2
    22    27    26    1
    23    11    15    1
    24    11     7    2
    25    16    17    2
    26    16     3    1
    27     6     7    1
    28    17    18    1
    29     3     2    2
    30    18     1    2
    31     2     1    1
    32     2    19    1
