########## Name: lig_27
########## Vina_BE: -8.532
########## MW: 279.205
########## clogP: -0.331
########## nonHatoms: 23
########## Vina_LE: -0.371
########## Vina_LipE: -8.201
########## Close_contacts: 0
########## Hydrophob_contacts: 23
########## HBonds: 1
########## Salt_Bridges: 0
########## Pi-Pi_Parallel: 0
########## Pi-Pi_Perpendicular: 0
########## Pi-Cation: 0
########## Halogen_Bonds: 0
@<TRIPOS>MOLECULE
lig_27.pdbqt
 23 25 0 0 0
SMALL
GASTEIGER

@<TRIPOS>ATOM
      1  CA       -26.4920   -7.8620  -20.0570 C.ar    1  UNL1        0.0410
      2  N        -26.4490   -6.5280  -20.4580 N.ar    1  UNL1       -0.2150
      3  C        -27.7550   -6.0960  -20.3430 C.ar    1  UNL1       -0.0400
      4  C        -28.2740   -4.8290  -20.6350 C.2     1  UNL1       -0.0330
      5  C        -29.6560   -4.6270  -20.4450 C.2     1  UNL1       -0.0360
      6  C        -30.4760   -5.6820  -19.9800 C.2     1  UNL1       -0.0710
      7  C        -29.9250   -6.9490  -19.6950 C.2     1  UNL1        0.0250
      8  C        -28.5480   -7.1320  -19.8840 C.ar    1  UNL1       -0.0710
      9  C        -27.7630   -8.2550  -19.6950 C.ar    1  UNL1       -0.1800
     10  H        -25.6220   -6.0420  -20.7700 H       1  UNL1        0.3100
     11  C        -25.2570   -8.7070  -20.0590 C.2     1  UNL1        0.8430
     12  O        -25.1950   -9.5710  -20.9230 O.co2   1  UNL1       -0.8210
     13  OXT      -24.3720   -8.5430  -19.2300 O.co2   1  UNL1       -0.8210
     14  C        -28.2080   -9.6180  -19.2040 C.3     1  UNL1        0.1040
     15  C        -28.8060  -10.4630  -20.3550 C.3     1  UNL1       -0.0260
     16  C        -30.3510  -10.5100  -20.3500 C.3     1  UNL1        0.2820
     17  O        -30.8700  -10.1590  -19.0470 O.2     1  UNL1       -0.3520
     18  C        -32.1200  -10.5260  -18.6010 C.2     1  UNL1        0.1340
     19  C        -33.2500  -10.5110  -19.4390 C.2     1  UNL1       -0.0120
     20  C        -34.5080  -10.8790  -18.9310 C.2     1  UNL1        0.0100
     21  C        -34.6400  -11.2460  -17.5810 C.2     1  UNL1       -0.0710
     22  C        -33.5160  -11.2450  -16.7390 C.2     1  UNL1        0.0100
     23  C        -32.2600  -10.8800  -17.2520 C.2     1  UNL1       -0.0120
@<TRIPOS>BOND
     1    12    11   ar
     2    10     2    1
     3     4     5    1
     4     4     3    2
     5     2     3   ar
     6     2     1   ar
     7     5     6    2
     8    15    16    1
     9    15    14    1
    10    16    17    1
    11     3     8   ar
    12    11     1    1
    13    11    13   ar
    14     1     9   ar
    15     6     7    1
    16     8     7    2
    17     8     9   ar
    18     9    14    1
    19    19    20    1
    20    19    18    2
    21    17    18    1
    22    20    21    2
    23    18    23    1
    24    21    22    1
    25    23    22    2
########## Name: lig_28
########## Vina_BE: -8.904
########## MW: 291.216
########## clogP: -0.176
########## nonHatoms: 24
########## Vina_LE: -0.371
########## Vina_LipE: -8.728
########## Close_contacts: 0
########## Hydrophob_contacts: 23
########## HBonds: 1
########## Salt_Bridges: 0
########## Pi-Pi_Parallel: 0
########## Pi-Pi_Perpendicular: 0
########## Pi-Cation: 0
########## Halogen_Bonds: 0
@<TRIPOS>MOLECULE
lig_28.pdbqt
 24 26 0 0 0
SMALL
GASTEIGER

@<TRIPOS>ATOM
      1  C        -27.8720   -8.1110  -19.6990 C.ar    1  UNL1       -0.1860
      2  CA       -26.5220   -7.7010  -20.0420 C.ar    1  UNL1        0.0480
      3  N        -26.5030   -6.3470  -20.3930 N.ar    1  UNL1       -0.2140
      4  C        -27.8020   -5.8850  -20.2930 C.ar    1  UNL1       -0.0430
      5  C        -28.2730   -4.5930  -20.5520 C.2     1  UNL1       -0.0330
      6  C        -29.6530   -4.3510  -20.3940 C.2     1  UNL1       -0.0390
      7  C        -30.5210   -5.3920  -19.9940 C.2     1  UNL1       -0.0730
      8  C        -30.0190   -6.6860  -19.7440 C.2     1  UNL1        0.0200
      9  C        -28.6440   -6.9030  -19.8940 C.ar    1  UNL1       -0.0730
     10  H        -25.6700   -5.8510  -20.6700 H       1  UNL1        0.3100
     11  C        -25.2680   -8.5090  -20.0490 C.2     1  UNL1        0.8380
     12  OXT      -24.3850   -8.3050  -19.2320 O.co2   1  UNL1       -0.8150
     13  O        -25.1860   -9.3720  -20.9130 O.co2   1  UNL1       -0.8150
     14  C        -28.2610   -9.4830  -19.2050 C.3     1  UNL1        0.0980
     15  C        -28.4930  -10.4890  -20.3590 C.3     1  UNL1        0.0250
     16  C        -29.9720  -10.8840  -20.5770 C.3     1  UNL1        0.2440
     17  O        -30.8510   -9.9360  -19.9370 O.2     1  UNL1       -0.3680
     18  C        -31.8270  -10.3510  -19.0620 C.2     1  UNL1        0.1200
     19  C        -31.4790  -10.5630  -17.7190 C.2     1  UNL1        0.0070
     20  C        -32.4480  -10.9810  -16.7930 C.2     1  UNL1       -0.0080
     21  C        -33.7750  -11.1720  -17.2120 C.2     1  UNL1       -0.0310
     22  C        -34.1310  -10.9390  -18.5510 C.2     1  UNL1       -0.0040
     23  C        -33.1630  -10.5210  -19.4850 C.2     1  UNL1       -0.0960
     24  C        -33.5730  -10.2770  -20.9320 C.3     1  UNL1        0.0900
@<TRIPOS>BOND
     1    24    23    1
     2    13    11   ar
     3    10     3    1
     4    16    15    1
     5    16    17    1
     6     5     6    1
     7     5     4    2
     8     6     7    2
     9     3     4   ar
    10     3     2   ar
    11    15    14    1
    12     4     9   ar
    13    11     2    1
    14    11    12   ar
    15     2     1   ar
    16     7     8    1
    17    17    18    1
    18     9     8    2
    19     9     1   ar
    20     1    14    1
    21    23    18    2
    22    23    22    1
    23    18    19    1
    24    22    21    2
    25    19    20    2
    26    21    20    1
########## Name: lig_30
########## Vina_BE: -9.081
########## MW: 291.216
########## clogP: -0.176
########## nonHatoms: 24
########## Vina_LE: -0.378
########## Vina_LipE: -8.905
########## Close_contacts: 1
########## Hydrophob_contacts: 31
########## HBonds: 1
########## Salt_Bridges: 0
########## Pi-Pi_Parallel: 0
########## Pi-Pi_Perpendicular: 0
########## Pi-Cation: 0
########## Halogen_Bonds: 0
@<TRIPOS>MOLECULE
lig_30.pdbqt
 24 26 0 0 0
SMALL
GASTEIGER

@<TRIPOS>ATOM
      1  C        -27.7160   -8.0950  -19.8260 C.ar    1  UNL1       -0.1930
      2  CA       -26.4690   -7.6520  -20.2880 C.ar    1  UNL1       -0.0370
      3  N        -26.6250   -6.3270  -20.7330 N.ar    1  UNL1       -0.2140
      4  C        -27.9370   -5.9490  -20.5520 C.ar    1  UNL1       -0.0420
      5  C        -28.5390   -4.7190  -20.8460 C.2     1  UNL1       -0.0300
      6  C        -29.9130   -4.5790  -20.5600 C.2     1  UNL1       -0.0380
      7  C        -30.6390   -5.6550  -19.9990 C.2     1  UNL1       -0.0670
      8  C        -30.0010   -6.8800  -19.7150 C.2     1  UNL1        0.0130
      9  C        -28.6340   -6.9930  -20.0060 C.ar    1  UNL1       -0.0730
     10  H        -25.8680   -5.7790  -21.1150 H       1  UNL1        0.3100
     11  C        -25.1620   -8.3700  -20.3360 C.2     1  UNL1        0.9270
     12  OXT      -24.2000   -7.9730  -19.6980 O.co2   1  UNL1       -0.8140
     13  O        -25.1240   -9.3650  -21.0460 O.co2   1  UNL1       -0.8140
     14  C        -27.9880   -9.4540  -19.2290 C.3     1  UNL1        0.0990
     15  C        -28.4430  -10.4900  -20.2820 C.3     1  UNL1        0.0220
     16  C        -29.9790  -10.5160  -20.4670 C.3     1  UNL1        0.2540
     17  O        -30.6310  -10.3690  -19.1880 O.2     1  UNL1       -0.3400
     18  C        -31.9860  -10.5330  -18.9880 C.2     1  UNL1        0.1530
     19  C        -32.8310  -10.3600  -20.0920 C.2     1  UNL1       -0.0370
     20  C        -34.2200  -10.5240  -19.9600 C.2     1  UNL1        0.0140
     21  C        -34.7660  -10.8670  -18.7120 C.2     1  UNL1       -0.0660
     22  C        -33.9300  -11.0440  -17.5970 C.2     1  UNL1       -0.0450
     23  C        -34.5150  -11.4190  -16.2460 C.3     1  UNL1        0.0690
     24  C        -32.5400  -10.8810  -17.7390 C.2     1  UNL1       -0.0500
@<TRIPOS>BOND
     1    10     3    1
     2    13    11   ar
     3     5     6    1
     4     5     4    2
     5     3     4   ar
     6     3     2   ar
     7     6     7    2
     8     4     9   ar
     9    16    15    1
    10    16    17    1
    11    11     2    1
    12    11    12   ar
    13     2     1   ar
    14    15    14    1
    15    19    20    1
    16    19    18    2
    17     9     1   ar
    18     9     8    2
    19     7     8    1
    20    20    21    2
    21     1    14    1
    22    17    18    1
    23    18    24    1
    24    21    22    1
    25    24    22    2
    26    22    23    1
########## Name: lig_31
########## Vina_BE: -9.567
########## MW: 348.211
########## clogP: 2.342
########## nonHatoms: 27
########## Vina_LE: -0.354
########## Vina_LipE: -11.909
########## Close_contacts: 0
########## Hydrophob_contacts: 22
########## HBonds: 2
########## Salt_Bridges: 0
########## Pi-Pi_Parallel: 0
########## Pi-Pi_Perpendicular: 0
########## Pi-Cation: 0
########## Halogen_Bonds: 2
@<TRIPOS>MOLECULE
lig_31.pdbqt
 27 29 0 0 0
SMALL
GASTEIGER

@<TRIPOS>ATOM
      1  C        -28.0000   -8.9440  -19.0460 C.3     1  UNL1        0.1040
      2  C        -27.7070   -7.6410  -19.7530 C.ar    1  UNL1       -0.1820
      3  C        -28.6120   -6.5320  -19.9490 C.ar    1  UNL1       -0.0710
      4  C        -29.9570   -6.3760  -19.5870 C.2     1  UNL1        0.0250
      5  C        -27.9330   -5.5330  -20.5920 C.ar    1  UNL1       -0.0390
      6  C        -30.5920   -5.1570  -19.9050 C.2     1  UNL1       -0.0680
      7  C        -29.8830   -4.1300  -20.5690 C.2     1  UNL1       -0.0330
      8  C        -28.5300   -4.3110  -20.9220 C.2     1  UNL1       -0.0310
      9  N        -26.6400   -5.9470  -20.8220 N.ar    1  UNL1       -0.2140
     10  CA       -26.4770   -7.2450  -20.3040 C.ar    1  UNL1       -0.0480
     11  H        -25.8940   -5.4330  -21.2670 H       1  UNL1        0.3110
     12  C        -25.1770   -7.9730  -20.3860 C.2     1  UNL1        0.9330
     13  OXT      -24.8180   -8.3080  -21.5040 O.co2   1  UNL1       -0.8230
     14  O        -24.5410   -8.2460  -19.3810 O.co2   1  UNL1       -0.8230
     15  C        -27.8660  -10.1640  -19.9860 C.3     1  UNL1       -0.0240
     16  C        -29.2110  -10.8830  -20.2550 C.3     1  UNL1        0.2880
     17  O        -30.2700   -9.9040  -20.3580 O.2     1  UNL1       -0.3460
     18  C        -31.5750  -10.2120  -20.0420 C.2     1  UNL1        0.1330
     19  C        -32.5820  -10.2300  -21.0200 C.2     1  UNL1        0.0660
     20  C        -33.8960  -10.5730  -20.6660 C.2     1  UNL1        0.0390
     21  C        -34.2050  -10.8960  -19.3340 C.2     1  UNL1       -0.0020
     22  C        -33.2030  -10.8760  -18.3390 C.2     1  UNL1       -0.1540
     23  C        -31.8880  -10.5180  -18.7090 C.2     1  UNL1        0.0190
     24  C        -33.5450  -11.2230  -16.8860 C.3     1  UNL1        0.6870
     25  F        -34.3500  -12.3050  -16.8110 F       1  UNL1       -0.2490
     26  F        -32.4460  -11.5080  -16.1510 F       1  UNL1       -0.2490
     27  F        -34.1830  -10.2210  -16.2410 F       1  UNL1       -0.2490
@<TRIPOS>BOND
     1    13    12   ar
     2    11     9    1
     3    19    20    1
     4    19    18    2
     5     8     5    1
     6     8     7    2
     7     9     5   ar
     8     9    10   ar
     9    20    21    2
    10     5     3   ar
    11     7     6    1
    12    12    10    1
    13    12    14   ar
    14    17    16    1
    15    17    18    1
    16    10     2   ar
    17    16    15    1
    18    18    23    1
    19    15     1    1
    20     3     2   ar
    21     3     4    1
    22     6     4    2
    23     2     1    1
    24    21    22    1
    25    23    22    2
    26    22    24    1
    27    24    25    1
    28    24    27    1
    29    24    26    1
########## Name: lig_32
########## Vina_BE: -9.105
########## MW: 291.216
########## clogP: -0.176
########## nonHatoms: 24
########## Vina_LE: -0.379
########## Vina_LipE: -8.929
########## Close_contacts: 0
########## Hydrophob_contacts: 25
########## HBonds: 2
########## Salt_Bridges: 0
########## Pi-Pi_Parallel: 0
########## Pi-Pi_Perpendicular: 0
########## Pi-Cation: 0
########## Halogen_Bonds: 0
@<TRIPOS>MOLECULE
lig_32.pdbqt
 24 26 0 0 0
SMALL
GASTEIGER

@<TRIPOS>ATOM
      1  C        -27.7140   -7.7330  -19.8230 C.ar    1  UNL1       -0.1930
      2  CA       -26.4570   -7.3350  -20.2980 C.ar    1  UNL1       -0.0370
      3  N        -26.5620   -5.9950  -20.7170 N.ar    1  UNL1       -0.2140
      4  C        -27.8470   -5.5570  -20.4860 C.ar    1  UNL1       -0.0430
      5  C        -28.3920   -4.2870  -20.7110 C.2     1  UNL1       -0.0300
      6  C        -29.7440   -4.0850  -20.3620 C.2     1  UNL1       -0.0380
      7  C        -30.5040   -5.1390  -19.8050 C.2     1  UNL1       -0.0670
      8  C        -29.9240   -6.4060  -19.5930 C.2     1  UNL1        0.0140
      9  C        -28.5800   -6.5820  -19.9480 C.ar    1  UNL1       -0.0720
     10  H        -25.7880   -5.4720  -21.0980 H       1  UNL1        0.3100
     11  C        -25.1790   -8.1040  -20.3710 C.2     1  UNL1        0.9270
     12  OXT      -24.5400   -8.3630  -19.3640 O.co2   1  UNL1       -0.8150
     13  O        -24.8130   -8.4270  -21.4920 O.co2   1  UNL1       -0.8150
     14  C        -28.0340   -9.0860  -19.2370 C.3     1  UNL1        0.0980
     15  C        -28.1430  -10.1850  -20.3200 C.3     1  UNL1        0.0230
     16  C        -29.5120  -10.8970  -20.3250 C.3     1  UNL1        0.2520
     17  O        -30.5330   -9.9410  -19.9810 O.2     1  UNL1       -0.3390
     18  C        -31.5930  -10.2940  -19.1810 C.2     1  UNL1        0.1480
     19  C        -32.8900  -10.4500  -19.6990 C.2     1  UNL1       -0.0390
     20  C        -33.9460  -10.8270  -18.8530 C.2     1  UNL1        0.0230
     21  C        -33.7120  -11.0520  -17.4840 C.2     1  UNL1       -0.1370
     22  C        -34.8570  -11.4580  -16.5710 C.3     1  UNL1        0.0600
     23  C        -32.4110  -10.9030  -16.9710 C.2     1  UNL1        0.0230
     24  C        -31.3550  -10.5310  -17.8200 C.2     1  UNL1       -0.0390
@<TRIPOS>BOND
     1    13    11   ar
     2    10     3    1
     3     3     4   ar
     4     3     2   ar
     5     5     4    2
     6     5     6    1
     7     4     9   ar
     8    11     2    1
     9    11    12   ar
    10     6     7    2
    11    16    15    1
    12    16    17    1
    13    15    14    1
    14     2     1   ar
    15    17    18    1
    16     9     1   ar
    17     9     8    2
    18     1    14    1
    19     7     8    1
    20    19    18    2
    21    19    20    1
    22    18    24    1
    23    20    21    2
    24    24    23    2
    25    21    23    1
    26    21    22    1
########## Name: lig_33
########## Vina_BE: -8.814
########## MW: 314.658
########## clogP: 0.432
########## nonHatoms: 24
########## Vina_LE: -0.367
########## Vina_LipE: -9.246
########## Close_contacts: 1
########## Hydrophob_contacts: 20
########## HBonds: 2
########## Salt_Bridges: 0
########## Pi-Pi_Parallel: 0
########## Pi-Pi_Perpendicular: 0
########## Pi-Cation: 0
########## Halogen_Bonds: 0
@<TRIPOS>MOLECULE
lig_33.pdbqt
 24 26 0 0 0
SMALL
GASTEIGER

@<TRIPOS>ATOM
      1  CA       -26.3660   -7.3200  -20.2910 C.ar    1  UNL1       -0.0480
      2  N        -26.5160   -5.9910  -20.7260 N.ar    1  UNL1       -0.2140
      3  C        -27.8180   -5.5960  -20.5080 C.ar    1  UNL1       -0.0400
      4  C        -28.4160   -4.3630  -20.7970 C.2     1  UNL1       -0.0310
      5  C        -29.7800   -4.2090  -20.4800 C.2     1  UNL1       -0.0350
      6  C        -30.5040   -5.2730  -19.8930 C.2     1  UNL1       -0.0700
      7  C        -29.8700   -6.5040  -19.6170 C.2     1  UNL1        0.0250
      8  C        -28.5120   -6.6300  -19.9400 C.ar    1  UNL1       -0.0710
      9  C        -27.6040   -7.7430  -19.7850 C.ar    1  UNL1       -0.1810
     10  H        -25.7650   -5.4550  -21.1370 H       1  UNL1        0.3100
     11  C        -25.0810   -8.0750  -20.3980 C.2     1  UNL1        0.9320
     12  O        -24.8390   -8.5710  -21.4890 O.co2   1  UNL1       -0.8210
     13  OXT      -24.3330   -8.1940  -19.4380 O.co2   1  UNL1       -0.8210
     14  C        -27.8610   -9.1150  -19.2210 C.3     1  UNL1        0.1060
     15  C        -28.0020  -10.1770  -20.3380 C.3     1  UNL1       -0.0250
     16  C        -29.3810  -10.8730  -20.3740 C.3     1  UNL1        0.2840
     17  O        -30.4280   -9.9600  -19.9730 O.2     1  UNL1       -0.3480
     18  C        -31.4560  -10.2940  -19.1190 C.2     1  UNL1        0.1390
     19  C        -32.7370  -10.4540  -19.6670 C.2     1  UNL1        0.0010
     20  C        -33.8190  -10.8230  -18.8510 C.2     1  UNL1        0.0380
     21  C        -33.6160  -11.0400  -17.4790 C.2     1  UNL1       -0.0310
     22 CL        -34.9630  -11.5010  -16.4590 Cl      1  UNL1       -0.1370
     23  C        -32.3350  -10.8890  -16.9240 C.2     1  UNL1        0.0380
     24  C        -31.2530  -10.5250  -17.7440 C.2     1  UNL1        0.0010
@<TRIPOS>BOND
     1    12    11   ar
     2    10     2    1
     3     4     3    2
     4     4     5    1
     5     2     3   ar
     6     2     1   ar
     7     3     8   ar
     8     5     6    2
     9    11     1    1
    10    11    13   ar
    11    16    15    1
    12    16    17    1
    13    15    14    1
    14     1     9   ar
    15    17    18    1
    16     8     9   ar
    17     8     7    2
    18     6     7    1
    19     9    14    1
    20    19    18    2
    21    19    20    1
    22    18    24    1
    23    20    21    2
    24    24    23    2
    25    21    23    1
    26    21    22    1
########## Name: lig_34
########## Vina_BE: -9.674
########## MW: 348.211
########## clogP: 2.342
########## nonHatoms: 27
########## Vina_LE: -0.358
########## Vina_LipE: -12.016
########## Close_contacts: 1
########## Hydrophob_contacts: 24
########## HBonds: 2
########## Salt_Bridges: 0
########## Pi-Pi_Parallel: 0
########## Pi-Pi_Perpendicular: 0
########## Pi-Cation: 0
########## Halogen_Bonds: 0
@<TRIPOS>MOLECULE
lig_34.pdbqt
 27 29 0 0 0
SMALL
GASTEIGER

@<TRIPOS>ATOM
      1  C        -27.8920   -8.8460  -18.9100 C.3     1  UNL1        0.1040
      2  C        -27.6310   -7.5910  -19.7100 C.ar    1  UNL1       -0.1820
      3  C        -28.5460   -6.4960  -19.9440 C.ar    1  UNL1       -0.0710
      4  C        -29.8770   -6.3180  -19.5430 C.2     1  UNL1        0.0250
      5  C        -27.8910   -5.5410  -20.6720 C.ar    1  UNL1       -0.0390
      6  C        -30.5250   -5.1210  -19.9110 C.2     1  UNL1       -0.0680
      7  C        -29.8420   -4.1360  -20.6600 C.2     1  UNL1       -0.0330
      8  C        -28.5030   -4.3390  -21.0510 C.2     1  UNL1       -0.0310
      9  N        -26.6060   -5.9660  -20.9190 N.ar    1  UNL1       -0.2140
     10  CA       -26.4210   -7.2280  -20.3240 C.ar    1  UNL1       -0.0480
     11  H        -25.8770   -5.4800  -21.4180 H       1  UNL1        0.3110
     12  C        -25.1220   -7.9590  -20.3990 C.2     1  UNL1        0.9330
     13  OXT      -24.8440   -8.4530  -21.4810 O.co2   1  UNL1       -0.8230
     14  O        -24.4090   -8.0830  -19.4160 O.co2   1  UNL1       -0.8230
     15  C        -27.6140  -10.1320  -19.7220 C.3     1  UNL1       -0.0240
     16  C        -28.8850  -10.7390  -20.3680 C.3     1  UNL1        0.2880
     17  O        -29.9850   -9.8080  -20.2440 O.2     1  UNL1       -0.3460
     18  C        -31.1610  -10.1450  -19.6090 C.2     1  UNL1        0.1330
     19  C        -32.3910  -10.1910  -20.2870 C.2     1  UNL1        0.0660
     20  C        -33.5600  -10.5730  -19.6080 C.2     1  UNL1        0.0390
     21  C        -33.5180  -10.9090  -18.2370 C.2     1  UNL1       -0.1370
     22  C        -32.2800  -10.8470  -17.5630 C.2     1  UNL1       -0.0190
     23  C        -31.1140  -10.4620  -18.2440 C.2     1  UNL1        0.0190
     24  C        -34.7780  -11.3490  -17.4820 C.3     1  UNL1        0.6870
     25  F        -35.0150  -12.6720  -17.6290 F       1  UNL1       -0.2490
     26  F        -34.7220  -11.1200  -16.1510 F       1  UNL1       -0.2490
     27  F        -35.8780  -10.7110  -17.9390 F       1  UNL1       -0.2490
@<TRIPOS>BOND
     1    13    12   ar
     2    11     9    1
     3     8     5    1
     4     8     7    2
     5     9     5   ar
     6     9    10   ar
     7     5     3   ar
     8     7     6    1
     9    12    10    1
    10    12    14   ar
    11    16    17    1
    12    16    15    1
    13    10     2   ar
    14    19    18    2
    15    19    20    1
    16    17    18    1
    17     3     2   ar
    18     3     4    1
    19     6     4    2
    20    15     1    1
    21     2     1    1
    22    18    23    1
    23    20    21    2
    24    23    22    2
    25    21    22    1
    26    21    24    1
    27    27    24    1
    28    25    24    1
    29    24    26    1
########## Name: lig_35
########## Vina_BE: -8.881
########## MW: 326.669
########## clogP: 0.587
########## nonHatoms: 25
########## Vina_LE: -0.355
########## Vina_LipE: -9.468
########## Close_contacts: 0
########## Hydrophob_contacts: 22
########## HBonds: 2
########## Salt_Bridges: 0
########## Pi-Pi_Parallel: 0
########## Pi-Pi_Perpendicular: 0
########## Pi-Cation: 0
########## Halogen_Bonds: 0
@<TRIPOS>MOLECULE
lig_35.pdbqt
 25 27 0 0 0
SMALL
GASTEIGER

@<TRIPOS>ATOM
      1  C        -27.7210   -7.6320  -19.8480 C.ar    1  UNL1       -0.1950
      2  CA       -26.4610   -7.2260  -20.3110 C.ar    1  UNL1       -0.0370
      3  N        -26.5700   -5.8870  -20.7260 N.ar    1  UNL1       -0.2140
      4  C        -27.8570   -5.4530  -20.4960 C.ar    1  UNL1       -0.0420
      5  C        -28.4010   -4.1810  -20.7100 C.2     1  UNL1       -0.0290
      6  C        -29.7510   -3.9810  -20.3580 C.2     1  UNL1       -0.0370
      7  C        -30.5100   -5.0370  -19.8030 C.2     1  UNL1       -0.0660
      8  C        -29.9300   -6.3070  -19.6010 C.2     1  UNL1        0.0110
      9  C        -28.5880   -6.4820  -19.9650 C.ar    1  UNL1       -0.0740
     10  H        -25.7940   -5.3580  -21.0950 H       1  UNL1        0.3110
     11  C        -25.1790   -7.9890  -20.3690 C.2     1  UNL1        0.9270
     12  OXT      -24.5330   -8.2170  -19.3590 O.co2   1  UNL1       -0.8140
     13  O        -24.8090   -8.3290  -21.4840 O.co2   1  UNL1       -0.8140
     14  C        -28.0430   -8.9940  -19.2820 C.3     1  UNL1        0.0980
     15  C        -27.8540  -10.1190  -20.3270 C.3     1  UNL1        0.0260
     16  C        -29.1620  -10.8700  -20.6450 C.3     1  UNL1        0.2600
     17  O        -30.2540   -9.9330  -20.5990 O.2     1  UNL1       -0.3380
     18  C        -31.4560  -10.2050  -19.9840 C.2     1  UNL1        0.1580
     19  C        -31.4240  -10.5300  -18.6210 C.2     1  UNL1       -0.0400
     20  C        -32.6090  -10.8310  -17.9230 C.2     1  UNL1       -0.0300
     21  C        -32.5470  -11.1940  -16.4460 C.3     1  UNL1        0.0910
     22  C        -33.8390  -10.8000  -18.6120 C.2     1  UNL1       -0.0360
     23  C        -33.8760  -10.4770  -19.9790 C.2     1  UNL1        0.0390
     24 CL        -35.3490  -11.1640  -17.7960 Cl      1  UNL1       -0.1280
     25  C        -32.6870  -10.1810  -20.6670 C.2     1  UNL1       -0.0260
@<TRIPOS>BOND
     1    13    11   ar
     2    10     3    1
     3     3     4   ar
     4     3     2   ar
     5     5     4    2
     6     5     6    1
     7    25    18    2
     8    25    23    1
     9    16    17    1
    10    16    15    1
    11    17    18    1
    12     4     9   ar
    13    11     2    1
    14    11    12   ar
    15     6     7    2
    16    15    14    1
    17     2     1   ar
    18    18    19    1
    19    23    22    2
    20     9     1   ar
    21     9     8    2
    22     1    14    1
    23     7     8    1
    24    19    20    2
    25    22    20    1
    26    22    24    1
    27    20    21    1
########## Name: lig_36
########## Vina_BE: -8.755
########## MW: 338.68
########## clogP: 0.668
########## nonHatoms: 26
########## Vina_LE: -0.337
########## Vina_LipE: -9.423
########## Close_contacts: 2
########## Hydrophob_contacts: 29
########## HBonds: 2
########## Salt_Bridges: 0
########## Pi-Pi_Parallel: 0
########## Pi-Pi_Perpendicular: 0
########## Pi-Cation: 0
########## Halogen_Bonds: 0
@<TRIPOS>MOLECULE
lig_36.pdbqt
 26 28 0 0 0
SMALL
GASTEIGER

@<TRIPOS>ATOM
      1  C        -27.4400   -7.5810  -19.8100 C.ar    1  UNL1       -0.1820
      2  CA       -26.2520   -7.0630  -20.4720 C.ar    1  UNL1        0.0400
      3  N        -26.5140   -5.8010  -21.0160 N.ar    1  UNL1       -0.2140
      4  C        -27.8270   -5.4970  -20.7210 C.ar    1  UNL1       -0.0400
      5  C        -28.5320   -4.3350  -21.0600 C.2     1  UNL1       -0.0310
      6  C        -29.8780   -4.2400  -20.6520 C.2     1  UNL1       -0.0350
      7  C        -30.4820   -5.2900  -19.9230 C.2     1  UNL1       -0.0700
      8  C        -29.7480   -6.4490  -19.5950 C.2     1  UNL1        0.0250
      9  C        -28.4110   -6.5250  -20.0100 C.ar    1  UNL1       -0.0700
     10  H        -25.8300   -5.2570  -21.5210 H       1  UNL1        0.3100
     11  C        -24.9040   -7.6820  -20.6240 C.2     1  UNL1        0.8430
     12  O        -23.9500   -7.2790  -19.9810 O.co2   1  UNL1       -0.8210
     13  OXT      -24.8250   -8.6300  -21.3930 O.co2   1  UNL1       -0.8210
     14  C        -27.5630   -8.9060  -19.0960 C.3     1  UNL1        0.1050
     15  C        -27.8600  -10.0680  -20.0740 C.3     1  UNL1       -0.0250
     16  C        -29.2640  -10.6740  -19.8750 C.3     1  UNL1        0.2860
     17  O        -29.8350  -10.0920  -18.6870 O.2     1  UNL1       -0.3480
     18  C        -31.1070  -10.4250  -18.2980 C.2     1  UNL1        0.1410
     19  C        -32.1270  -10.4620  -19.2590 C.2     1  UNL1       -0.0340
     20  C        -33.4480  -10.7850  -18.8950 C.2     1  UNL1       -0.0570
     21  C        -33.7380  -11.0600  -17.5400 C.2     1  UNL1       -0.0260
     22  C        -32.7170  -11.0080  -16.5750 C.2     1  UNL1        0.0580
     23 CL        -35.3620  -11.4520  -17.0020 Cl      1  UNL1       -0.1370
     24  C        -31.4020  -10.6880  -16.9520 C.2     1  UNL1        0.0360
     25  C        -34.5300  -10.8090  -19.9710 C.3     1  UNL1        0.0570
     26  C        -34.0460  -10.1720  -21.2900 C.3     1  UNL1        0.0110
@<TRIPOS>BOND
     1    10     3    1
     2    13    11   ar
     3    26    25    1
     4     5     4    2
     5     5     6    1
     6     3     4   ar
     7     3     2   ar
     8     4     9   ar
     9     6     7    2
    10    11     2    1
    11    11    12   ar
    12     2     1   ar
    13    15    16    1
    14    15    14    1
    15     9     1   ar
    16     9     8    2
    17    25    20    1
    18     7     8    1
    19    16    17    1
    20     1    14    1
    21    19    20    1
    22    19    18    2
    23    20    21    2
    24    17    18    1
    25    18    24    1
    26    21    23    1
    27    21    22    1
    28    24    22    2
########## Name: lig_37
########## Vina_BE: -8.889
########## MW: 338.68
########## clogP: 0.742
########## nonHatoms: 26
########## Vina_LE: -0.342
########## Vina_LipE: -9.631
########## Close_contacts: 0
########## Hydrophob_contacts: 26
########## HBonds: 2
########## Salt_Bridges: 0
########## Pi-Pi_Parallel: 0
########## Pi-Pi_Perpendicular: 0
########## Pi-Cation: 0
########## Halogen_Bonds: 0
@<TRIPOS>MOLECULE
lig_37.pdbqt
 26 28 0 0 0
SMALL
GASTEIGER

@<TRIPOS>ATOM
      1  C        -27.5350   -7.4600  -19.7120 C.ar    1  UNL1       -0.2010
      2  CA       -26.3310   -7.0070  -20.3920 C.ar    1  UNL1        0.0730
      3  N        -26.5530   -5.7540  -20.9740 N.ar    1  UNL1       -0.2220
      4  C        -27.8600   -5.4030  -20.6950 C.ar    1  UNL1       -0.0430
      5  C        -28.5320   -4.2380  -21.0820 C.2     1  UNL1       -0.0310
      6  C        -29.8770   -4.0910  -20.6860 C.2     1  UNL1       -0.0380
      7  C        -30.5140   -5.0980  -19.9240 C.2     1  UNL1       -0.0640
      8  C        -29.8120   -6.2630  -19.5490 C.2     1  UNL1        0.0190
      9  C        -28.4760   -6.3890  -19.9500 C.ar    1  UNL1       -0.0560
     10  H        -25.8560   -5.2490  -21.5010 H       1  UNL1        0.2980
     11  C        -25.0100   -7.6950  -20.5210 C.2     1  UNL1        0.8300
     12  O        -24.1900   -7.6660  -19.6170 O.co2   1  UNL1       -0.8100
     13  OXT      -24.8100   -8.2910  -21.5710 O.co2   1  UNL1       -0.8100
     14  C        -27.6650   -8.7760  -18.9900 C.3     1  UNL1        0.0940
     15  C        -27.3400   -9.9800  -19.9100 C.3     1  UNL1       -0.0200
     16  C        -28.6020  -10.7520  -20.3430 C.3     1  UNL1        0.2770
     17  O        -29.6890   -9.8180  -20.5020 O.2     1  UNL1       -0.3530
     18  C        -30.9280  -10.1000  -19.9810 C.2     1  UNL1        0.1400
     19  C        -32.0690  -10.1430  -20.7990 C.2     1  UNL1       -0.0100
     20  C        -33.3260  -10.4490  -20.2490 C.2     1  UNL1       -0.0400
     21  C        -34.5470  -10.4790  -21.1590 C.3     1  UNL1        0.0910
     22  C        -33.4330  -10.7270  -18.8680 C.2     1  UNL1       -0.0290
     23  C        -32.2830  -10.7040  -18.0470 C.2     1  UNL1       -0.0400
     24 CL        -34.9990  -11.1150  -18.1700 Cl      1  UNL1       -0.1380
     25  C        -31.0350  -10.3930  -18.6160 C.2     1  UNL1       -0.0100
     26  C        -32.3750  -11.0120  -16.5590 C.3     1  UNL1        0.0910
@<TRIPOS>BOND
     1    13    11   ar
     2    10     3    1
     3    21    20    1
     4     5     4    2
     5     5     6    1
     6     3     4   ar
     7     3     2   ar
     8    19    20    1
     9    19    18    2
    10     4     9   ar
    11     6     7    2
    12    11     2    1
    13    11    12   ar
    14    17    16    1
    15    17    18    1
    16     2     1   ar
    17    16    15    1
    18    20    22    2
    19    18    25    1
    20     9     1   ar
    21     9     8    2
    22     7     8    1
    23    15    14    1
    24     1    14    1
    25    22    24    1
    26    22    23    1
    27    25    23    2
    28    23    26    1
########## Name: lig_43
########## Vina_BE: -10.27
########## MW: 327.248
########## clogP: 1.685
########## nonHatoms: 27
########## Vina_LE: -0.38
########## Vina_LipE: -11.955
########## Close_contacts: 0
########## Hydrophob_contacts: 33
########## HBonds: 2
########## Salt_Bridges: 0
########## Pi-Pi_Parallel: 0
########## Pi-Pi_Perpendicular: 0
########## Pi-Cation: 0
########## Halogen_Bonds: 0
@<TRIPOS>MOLECULE
lig_43.pdbqt
 27 30 0 0 0
SMALL
GASTEIGER

@<TRIPOS>ATOM
      1  C        -27.8540   -8.8950  -19.0640 C.3     1  UNL1        0.1050
      2  C        -27.6220   -7.5930  -19.7940 C.ar    1  UNL1       -0.1800
      3  C        -28.5740   -6.5240  -19.9980 C.ar    1  UNL1       -0.0710
      4  C        -29.9200   -6.4190  -19.6250 C.2     1  UNL1        0.0250
      5  C        -27.9390   -5.5070  -20.6550 C.ar    1  UNL1       -0.0400
      6  C        -30.6070   -5.2290  -19.9500 C.2     1  UNL1       -0.0700
      7  C        -29.9430   -4.1810  -20.6300 C.2     1  UNL1       -0.0350
      8  C        -28.5870   -4.3120  -20.9920 C.2     1  UNL1       -0.0330
      9  N        -26.6310   -5.8680  -20.8870 N.ar    1  UNL1       -0.2140
     10  CA       -26.4100   -7.1510  -20.3510 C.ar    1  UNL1       -0.0480
     11  H        -25.9080   -5.3260  -21.3370 H       1  UNL1        0.3100
     12  C        -25.0760   -7.8160  -20.4160 C.2     1  UNL1        0.9320
     13  O        -24.8020   -8.3650  -21.4720 O.co2   1  UNL1       -0.8220
     14  OXT      -24.3240   -7.8240  -19.4560 O.co2   1  UNL1       -0.8220
     15  C        -27.5290  -10.1290  -19.9370 C.3     1  UNL1       -0.0240
     16  C        -28.7830  -10.7830  -20.5700 C.3     1  UNL1        0.2800
     17  O        -29.8750   -9.8340  -20.5770 O.2     1  UNL1       -0.3510
     18  C        -31.1140  -10.1420  -20.0550 C.2     1  UNL1        0.1230
     19  C        -32.2350  -10.0800  -20.8960 C.2     1  UNL1       -0.0090
     20  C        -33.5210  -10.3410  -20.3880 C.2     1  UNL1       -0.0040
     21  C        -33.6860  -10.6670  -19.0290 C.2     1  UNL1       -0.0700
     22  C        -34.9670  -10.9120  -18.5000 C.2     1  UNL1       -0.0070
     23  C        -32.5570  -10.7440  -18.1870 C.2     1  UNL1       -0.0050
     24  C        -35.1190  -11.2270  -17.1390 C.2     1  UNL1       -0.0330
     25  C        -33.9930  -11.2980  -16.3020 C.2     1  UNL1       -0.0250
     26  C        -32.7120  -11.0560  -16.8260 C.2     1  UNL1        0.0610
     27  C        -31.2770  -10.4940  -18.7040 C.2     1  UNL1        0.0260
@<TRIPOS>BOND
     1    13    12   ar
     2    11     9    1
     3     8     5    1
     4     8     7    2
     5    19    20    1
     6    19    18    2
     7     9     5   ar
     8     9    10   ar
     9     5     3   ar
    10     7     6    1
    11    17    16    1
    12    17    18    1
    13    16    15    1
    14    12    10    1
    15    12    14   ar
    16    20    21    2
    17    10     2   ar
    18    18    27    1
    19     3     2   ar
    20     3     4    1
    21     6     4    2
    22    15     1    1
    23     2     1    1
    24    21    22    1
    25    21    23    1
    26    27    23    2
    27    22    24    2
    28    23    26    1
    29    24    25    1
    30    26    25    2
########## Name: lig_46
########## Vina_BE: -9.891
########## MW: 315.238
########## clogP: 0.06
########## nonHatoms: 26
########## Vina_LE: -0.38
########## Vina_LipE: -9.951
########## Close_contacts: 0
########## Hydrophob_contacts: 28
########## HBonds: 2
########## Salt_Bridges: 0
########## Pi-Pi_Parallel: 0
########## Pi-Pi_Perpendicular: 0
########## Pi-Cation: 0
########## Halogen_Bonds: 0
@<TRIPOS>MOLECULE
lig_46.pdbqt
 26 29 0 0 0
SMALL
GASTEIGER

@<TRIPOS>ATOM
      1  CA       -26.4900   -7.2100  -20.3480 C.ar    1  UNL1        0.0410
      2  N        -26.5950   -5.9220  -20.8710 N.ar    1  UNL1       -0.2150
      3  C        -27.9050   -5.5630  -20.6360 C.ar    1  UNL1       -0.0400
      4  C        -28.5450   -4.3610  -20.9640 C.2     1  UNL1       -0.0330
      5  C        -29.9050   -4.2280  -20.6190 C.2     1  UNL1       -0.0360
      6  C        -30.5830   -5.2810  -19.9630 C.2     1  UNL1       -0.0710
      7  C        -29.9130   -6.4810  -19.6450 C.2     1  UNL1        0.0250
      8  C        -28.5600   -6.5980  -19.9950 C.ar    1  UNL1       -0.0710
      9  C        -27.6800   -7.6480  -19.8020 C.ar    1  UNL1       -0.1800
     10  H        -25.8450   -5.4130  -21.3140 H       1  UNL1        0.3100
     11  C        -25.1930   -7.9510  -20.4250 C.2     1  UNL1        0.8430
     12  OXT      -24.8160   -8.2630  -21.5450 O.co2   1  UNL1       -0.8210
     13  O        -24.5780   -8.2590  -19.4150 O.co2   1  UNL1       -0.8210
     14  C        -28.0040   -8.9660  -19.1190 C.3     1  UNL1        0.1040
     15  C        -27.7220  -10.1930  -20.0150 C.3     1  UNL1       -0.0250
     16  C        -29.0070  -10.8480  -20.5830 C.3     1  UNL1        0.2810
     17  O        -30.1020   -9.9100  -20.5070 O.2     1  UNL1       -0.3520
     18  C        -31.3070  -10.2190  -19.9080 C.2     1  UNL1        0.1360
     19  C        -32.4560  -10.2450  -20.7230 C.2     1  UNL1       -0.0540
     20  C        -33.7200  -10.5400  -20.1770 C.2     1  UNL1        0.0120
     21  C        -33.8090  -10.8100  -18.8040 C.2     1  UNL1       -0.1440
     22  C        -32.6780  -10.7960  -18.0000 C.2     1  UNL1       -0.0520
     23  C        -35.0490  -11.1450  -18.0100 C.3     1  UNL1        0.0490
     24  C        -31.4150  -10.5050  -18.5300 C.2     1  UNL1        0.0400
     25  C        -33.0080  -11.1210  -16.5650 C.3     1  UNL1        0.0880
     26  C        -34.4900  -11.5830  -16.6280 C.3     1  UNL1       -0.0140
@<TRIPOS>BOND
     1    12    11   ar
     2    10     2    1
     3     4     3    2
     4     4     5    1
     5     2     3   ar
     6     2     1   ar
     7    19    20    1
     8    19    18    2
     9     3     8   ar
    10     5     6    2
    11    16    17    1
    12    16    15    1
    13    17    18    1
    14    11     1    1
    15    11    13   ar
    16     1     9   ar
    17    20    21    2
    18    15    14    1
    19     8     9   ar
    20     8     7    2
    21     6     7    1
    22    18    24    1
    23     9    14    1
    24    21    23    1
    25    21    22    1
    26    24    22    2
    27    23    26    1
    28    22    25    1
    29    26    25    1
########## Name: lig_47
########## Vina_BE: -9.612
########## MW: 329.244
########## clogP: 0.864
########## nonHatoms: 27
########## Vina_LE: -0.356
########## Vina_LipE: -10.476
########## Close_contacts: 0
########## Hydrophob_contacts: 21
########## HBonds: 2
########## Salt_Bridges: 0
########## Pi-Pi_Parallel: 0
########## Pi-Pi_Perpendicular: 0
########## Pi-Cation: 0
########## Halogen_Bonds: 0
@<TRIPOS>MOLECULE
lig_47.pdbqt
 27 30 0 0 0
SMALL
GASTEIGER

@<TRIPOS>ATOM
      1  C        -27.8520   -8.8280  -18.8890 C.3     1  UNL1        0.0930
      2  C        -27.6130   -7.5730  -19.6990 C.ar    1  UNL1       -0.1990
      3  C        -28.5520   -6.5040  -19.9500 C.ar    1  UNL1       -0.0570
      4  C        -29.8800   -6.3340  -19.5300 C.2     1  UNL1        0.0210
      5  C        -27.9270   -5.5560  -20.7120 C.ar    1  UNL1       -0.0420
      6  C        -30.5560   -5.1590  -19.9240 C.2     1  UNL1       -0.0640
      7  C        -29.9030   -4.1870  -20.7140 C.2     1  UNL1       -0.0370
      8  C        -28.5650   -4.3780  -21.1170 C.2     1  UNL1       -0.0300
      9  N        -26.6350   -5.9580  -20.9580 N.ar    1  UNL1       -0.2230
     10  CA       -26.4100   -7.1930  -20.3210 C.ar    1  UNL1       -0.0140
     11  H        -25.9200   -5.4610  -21.4690 H       1  UNL1        0.2970
     12  C        -25.0790   -7.8740  -20.3690 C.2     1  UNL1        0.9180
     13  OXT      -24.7840   -8.4050  -21.4290 O.co2   1  UNL1       -0.8120
     14  O        -24.3420   -7.9120  -19.3980 O.co2   1  UNL1       -0.8120
     15  C        -27.5560  -10.1180  -19.6900 C.3     1  UNL1       -0.0190
     16  C        -28.7780  -10.6550  -20.4780 C.3     1  UNL1        0.2750
     17  O        -29.8790   -9.7220  -20.3690 O.2     1  UNL1       -0.3530
     18  C        -31.1130  -10.0960  -19.8780 C.2     1  UNL1        0.1180
     19  C        -32.2190  -10.0950  -20.7400 C.2     1  UNL1       -0.0080
     20  C        -33.4970  -10.4310  -20.2520 C.2     1  UNL1       -0.0380
     21  C        -33.6910  -10.7640  -18.9000 C.2     1  UNL1        0.3580
     22  N        -34.9290  -11.0600  -18.4530 N.2     1  UNL1       -0.6790
     23  C        -32.5670  -10.7720  -18.0430 C.2     1  UNL1       -0.1170
     24  C        -35.0870  -11.3610  -17.1500 C.2     1  UNL1        0.3890
     25  C        -34.0240  -11.3800  -16.2330 C.2     1  UNL1       -0.1390
     26  C        -32.7300  -11.0780  -16.6840 C.2     1  UNL1        0.1450
     27  C        -31.2900  -10.4590  -18.5340 C.2     1  UNL1        0.0340
@<TRIPOS>BOND
     1    11     9    1
     2    13    12   ar
     3     8     7    2
     4     8     5    1
     5     9     5   ar
     6     9    10   ar
     7    19    20    1
     8    19    18    2
     9     7     6    1
    10     5     3   ar
    11    16    17    1
    12    16    15    1
    13    17    18    1
    14    12    10    1
    15    12    14   ar
    16    10     2   ar
    17    20    21    2
    18     3     2   ar
    19     3     4    1
    20     6     4    2
    21    18    27    1
    22     2     1    1
    23    15     1    1
    24    21    22    1
    25    21    23    1
    26    27    23    2
    27    22    24    2
    28    23    26    1
    29    24    25    1
    30    26    25    2
########## Name: lig_48
########## Vina_BE: -9.152
########## MW: 318.241
########## clogP: 1.356
########## nonHatoms: 27
########## Vina_LE: -0.339
########## Vina_LipE: -10.508
########## Close_contacts: 0
########## Hydrophob_contacts: 26
########## HBonds: 2
########## Salt_Bridges: 0
########## Pi-Pi_Parallel: 0
########## Pi-Pi_Perpendicular: 0
########## Pi-Cation: 0
########## Halogen_Bonds: 0
@<TRIPOS>MOLECULE
lig_48.pdbqt
 27 30 0 0 0
SMALL
GASTEIGER

@<TRIPOS>ATOM
      1  C        -28.0330   -9.1500  -19.1570 C.3     1  UNL1        0.1070
      2  C        -27.7810   -7.7850  -19.7440 C.ar    1  UNL1       -0.1800
      3  C        -28.6440   -6.6440  -19.9530 C.ar    1  UNL1       -0.0710
      4  C        -30.0010   -6.4770  -19.6480 C.2     1  UNL1        0.0260
      5  C        -27.9170   -5.6320  -20.5490 C.ar    1  UNL1       -0.0400
      6  C        -30.6070   -5.2450  -19.9660 C.2     1  UNL1       -0.0710
      7  C        -29.8600   -4.2110  -20.5770 C.2     1  UNL1       -0.0360
      8  C        -28.4950   -4.3990  -20.8760 C.2     1  UNL1       -0.0330
      9  N        -26.6110   -6.0330  -20.7550 N.ar    1  UNL1       -0.2150
     10  CA       -26.5030   -7.3420  -20.2780 C.ar    1  UNL1        0.0420
     11  H        -25.8460   -5.5250  -21.1740 H       1  UNL1        0.3100
     12  C        -25.2110   -8.0870  -20.3670 C.2     1  UNL1        0.8440
     13  O        -24.8200   -8.3570  -21.4940 O.co2   1  UNL1       -0.8220
     14  OXT      -24.5970   -8.4180  -19.3640 O.co2   1  UNL1       -0.8220
     15  C        -27.9320  -10.2700  -20.2210 C.3     1  UNL1       -0.0260
     16  C        -29.2990  -10.7910  -20.7230 C.3     1  UNL1        0.2890
     17  O        -30.3510   -9.8270  -20.4980 O.2     1  UNL1       -0.3500
     18  C        -31.6320  -10.1420  -20.0980 C.2     1  UNL1        0.1940
     19  C        -32.6320  -10.1760  -21.0900 C.2     1  UNL1       -0.0790
     20  C        -33.9640  -10.5280  -20.7770 C.2     1  UNL1        0.0210
     21  C        -34.3160  -10.8690  -19.4580 C.2     1  UNL1       -0.0830
     22  C        -33.3090  -10.8470  -18.4870 C.2     1  UNL1       -0.0070
     23  N        -33.4410  -11.1440  -17.1420 N.pl3   1  UNL1       -0.2530
     24  C        -31.9980  -10.4980  -18.7830 C.2     1  UNL1       -0.1320
     25  C        -32.1610  -10.9420  -16.6450 C.2     1  UNL1        0.0400
     26  C        -31.2730  -10.5660  -17.6060 C.2     1  UNL1        0.0740
     27  H        -34.2800  -11.3650  -16.6340 H       1  UNL1        0.2770
@<TRIPOS>BOND
     1    13    12   ar
     2    11     9    1
     3    19    20    1
     4    19    18    2
     5     8     7    2
     6     8     5    1
     7    20    21    2
     8     9     5   ar
     9     9    10   ar
    10    16    17    1
    11    16    15    1
    12     7     6    1
    13     5     3   ar
    14    17    18    1
    15    12    10    1
    16    12    14   ar
    17    10     2   ar
    18    15     1    1
    19    18    24    1
    20     6     4    2
    21     3     2   ar
    22     3     4    1
    23     2     1    1
    24    21    22    1
    25    24    22    2
    26    24    26    1
    27    22    23    1
    28    26    25    2
    29    23    25    1
    30    23    27    1
########## Name: lig_49
########## Vina_BE: -8.973
########## MW: 362.122
########## clogP: 3.003
########## nonHatoms: 26
########## Vina_LE: -0.345
########## Vina_LipE: -11.976
########## Close_contacts: 1
########## Hydrophob_contacts: 17
########## HBonds: 1
########## Salt_Bridges: 0
########## Pi-Pi_Parallel: 0
########## Pi-Pi_Perpendicular: 0
########## Pi-Cation: 0
########## Halogen_Bonds: 0
@<TRIPOS>MOLECULE
lig_49.pdbqt
 26 28 0 0 0
SMALL
GASTEIGER

@<TRIPOS>ATOM
      1  C        -31.1520  -10.1560  -19.7070 C.ar    1  UNL1       -0.1740
      2  CA       -30.1060  -10.1110  -18.7000 C.ar    1  UNL1        0.0510
      3  N        -30.6330  -10.3930  -17.4400 N.ar    1  UNL1       -0.2090
      4  C        -31.9770  -10.6540  -17.6150 C.ar    1  UNL1       -0.0400
      5  C        -32.8910  -11.0190  -16.6190 C.2     1  UNL1       -0.0230
      6  C        -34.2200  -11.2730  -17.0030 C.2     1  UNL1       -0.0280
      7  C        -34.5990  -11.1630  -18.3590 C.2     1  UNL1       -0.0470
      8  C        -33.6630  -10.7960  -19.3470 C.2     1  UNL1        0.0560
      9 CL        -34.2020  -10.7100  -21.0130 Cl      1  UNL1       -0.1430
     10  C        -32.3350  -10.5350  -18.9470 C.ar    1  UNL1       -0.0600
     11  H        -30.0780  -10.4250  -16.5990 H       1  UNL1        0.3140
     12  C        -28.6500   -9.8310  -18.8660 C.2     1  UNL1        0.8390
     13  O        -28.2160   -8.8700  -18.2450 O.co2   1  UNL1       -0.8100
     14  OXT      -27.9470  -10.5470  -19.5580 O.co2   1  UNL1       -0.8100
     15  C        -30.9080   -9.8680  -21.1690 C.3     1  UNL1        0.1160
     16  C        -30.2510   -8.4830  -21.3860 C.3     1  UNL1        0.0410
     17  C        -31.0340   -7.3280  -20.7320 C.3     1  UNL1        0.2120
     18  O        -30.2750   -6.8230  -19.6200 O.2     1  UNL1       -0.3330
     19  C        -29.3950   -5.7870  -19.8010 C.2     1  UNL1        0.1530
     20  C        -28.1100   -6.0200  -20.3160 C.2     1  UNL1       -0.0300
     21  C        -27.2170   -4.9490  -20.5140 C.2     1  UNL1       -0.0340
     22  C        -25.8300   -5.2170  -21.0790 C.3     1  UNL1        0.0910
     23  C        -27.6310   -3.6390  -20.1910 C.2     1  UNL1       -0.0280
     24  C        -28.9230   -3.4070  -19.6870 C.2     1  UNL1        0.0370
     25 CL        -26.5630   -2.2660  -20.4170 Cl      1  UNL1       -0.1260
     26  C        -29.8060   -4.4840  -19.4980 C.2     1  UNL1       -0.0160
@<TRIPOS>BOND
     1    16    15    1
     2    16    17    1
     3    15     1    1
     4    22    21    1
     5     9     8    1
     6    17    18    1
     7    21    20    1
     8    21    23    2
     9    25    23    1
    10    20    19    2
    11    23    24    1
    12    19    18    1
    13    19    26    1
    14     1    10   ar
    15     1     2   ar
    16    24    26    2
    17    14    12   ar
    18     8    10    1
    19     8     7    2
    20    10     4   ar
    21    12     2    1
    22    12    13   ar
    23     2     3   ar
    24     7     6    1
    25     4     3   ar
    26     4     5    1
    27     3    11    1
    28     6     5    2
########## Name: lig_50
########## Vina_BE: -8.657
########## MW: 374.133
########## clogP: 3.158
########## nonHatoms: 27
########## Vina_LE: -0.321
########## Vina_LipE: -11.815
########## Close_contacts: 1
########## Hydrophob_contacts: 15
########## HBonds: 1
########## Salt_Bridges: 0
########## Pi-Pi_Parallel: 0
########## Pi-Pi_Perpendicular: 0
########## Pi-Cation: 0
########## Halogen_Bonds: 0
@<TRIPOS>MOLECULE
lig_50.pdbqt
 27 29 0 0 0
SMALL
GASTEIGER

@<TRIPOS>ATOM
      1  C        -31.1780  -10.0000  -19.5280 C.ar    1  UNL1       -0.1640
      2  CA       -30.1760   -9.9050  -18.5500 C.ar    1  UNL1       -0.0500
      3  N        -30.7090  -10.3850  -17.3430 N.ar    1  UNL1       -0.2090
      4  C        -32.0200  -10.7440  -17.5470 C.ar    1  UNL1       -0.0360
      5  C        -32.9230  -11.2440  -16.6010 C.2     1  UNL1       -0.0240
      6  C        -34.2350  -11.5220  -17.0310 C.2     1  UNL1       -0.0220
      7  C        -34.6050  -11.2870  -18.3740 C.2     1  UNL1       -0.0480
      8  C        -33.6730  -10.7790  -19.3040 C.2     1  UNL1        0.0590
      9 CL        -34.2150  -10.4820  -20.9440 Cl      1  UNL1       -0.1270
     10  C        -32.3600  -10.5200  -18.8580 C.ar    1  UNL1       -0.0630
     11  H        -30.1810  -10.4160  -16.4830 H       1  UNL1        0.3140
     12  C        -28.7740   -9.4000  -18.6470 C.2     1  UNL1        0.9330
     13  OXT      -28.5830   -8.2770  -18.2030 O.co2   1  UNL1       -0.8180
     14  O        -27.8900  -10.0620  -19.1650 O.co2   1  UNL1       -0.8180
     15  C        -30.9840   -9.6180  -20.9780 C.3     1  UNL1        0.1110
     16  C        -31.1340   -8.0920  -21.2080 C.3     1  UNL1       -0.0170
     17  C        -29.7890   -7.4050  -21.5130 C.3     1  UNL1        0.2780
     18  O        -29.6270   -6.2900  -20.6150 O.2     1  UNL1       -0.3480
     19  C        -28.4150   -5.6530  -20.5140 C.2     1  UNL1        0.1430
     20  C        -28.3210   -4.3620  -19.9710 C.2     1  UNL1       -0.0060
     21  C        -27.0700   -3.7290  -19.8590 C.2     1  UNL1       -0.0430
     22  C        -26.9980   -2.3260  -19.2710 C.3     1  UNL1        0.0850
     23  C        -25.9070   -4.4060  -20.2880 C.2     1  UNL1       -0.0300
     24  C        -25.9990   -5.7120  -20.8190 C.2     1  UNL1       -0.0430
     25 CL        -24.3380   -3.6260  -20.1520 Cl      1  UNL1       -0.1380
     26  C        -27.2590   -6.3280  -20.9230 C.2     1  UNL1       -0.0060
     27  C        -24.7560   -6.4650  -21.2740 C.3     1  UNL1        0.0850
@<TRIPOS>BOND
     1    17    16    1
     2    17    18    1
     3    27    24    1
     4    16    15    1
     5    15     1    1
     6     9     8    1
     7    26    24    1
     8    26    19    2
     9    24    23    2
    10    18    19    1
    11    19    20    1
    12    23    25    1
    13    23    21    1
    14    20    21    2
    15    21    22    1
    16     1    10   ar
    17     1     2   ar
    18     8    10    1
    19     8     7    2
    20    14    12   ar
    21    10     4   ar
    22    12     2    1
    23    12    13   ar
    24     2     3   ar
    25     7     6    1
    26     4     3   ar
    27     4     5    1
    28     3    11    1
    29     6     5    2
########## Name: lig_52
########## Vina_BE: -8.799
########## MW: 362.122
########## clogP: 1.35
########## nonHatoms: 26
########## Vina_LE: -0.338
########## Vina_LipE: -10.149
########## Close_contacts: 1
########## Hydrophob_contacts: 25
########## HBonds: 2
########## Salt_Bridges: 0
########## Pi-Pi_Parallel: 0
########## Pi-Pi_Perpendicular: 0
########## Pi-Cation: 0
########## Halogen_Bonds: 1
@<TRIPOS>MOLECULE
lig_52.pdbqt
 26 28 0 0 0
SMALL
GASTEIGER

@<TRIPOS>ATOM
      1  C        -27.3280   -7.8690  -19.8770 C.ar    1  UNL1       -0.1740
      2  CA       -26.1750   -7.2120  -20.4660 C.ar    1  UNL1        0.0510
      3  N        -26.4810   -5.8840  -20.7800 N.ar    1  UNL1       -0.2090
      4  C        -27.7810   -5.6620  -20.3640 C.ar    1  UNL1       -0.0400
      5  C        -28.5020   -4.4630  -20.4150 C.2     1  UNL1       -0.0230
      6  C        -29.8120   -4.4600  -19.8950 C.2     1  UNL1       -0.1420
      7 CL        -30.7560   -2.9870  -19.9270 Cl      1  UNL1       -0.1430
      8  C        -30.3650   -5.6340  -19.3390 C.2     1  UNL1       -0.0570
      9  C        -29.6170   -6.8280  -19.3000 C.2     1  UNL1        0.1800
     10  C        -28.3180   -6.8140  -19.8260 C.ar    1  UNL1       -0.0600
     11  H        -25.8220   -5.2340  -21.1820 H       1  UNL1        0.3140
     12  C        -24.8120   -7.7670  -20.7120 C.2     1  UNL1        0.8390
     13  OXT      -24.0570   -7.9960  -19.7810 O.co2   1  UNL1       -0.8100
     14  O        -24.5050   -7.9470  -21.8800 O.co2   1  UNL1       -0.8100
     15  C        -27.3350   -9.2810  -19.3460 C.3     1  UNL1        0.1160
     16  C        -27.8710  -10.2950  -20.3830 C.3     1  UNL1        0.0410
     17  C        -29.3980  -10.4960  -20.3020 C.3     1  UNL1        0.2120
     18  O        -29.8210  -10.2370  -18.9490 O.2     1  UNL1       -0.3330
     19  C        -31.0870  -10.5160  -18.4850 C.2     1  UNL1        0.1530
     20  C        -32.1380  -10.4790  -19.4120 C.2     1  UNL1       -0.0300
     21  C        -33.4640  -10.7280  -19.0100 C.2     1  UNL1       -0.0340
     22  C        -34.5880  -10.6760  -20.0330 C.3     1  UNL1        0.0910
     23  C        -33.7290  -11.0160  -17.6550 C.2     1  UNL1       -0.0280
     24  C        -32.6800  -11.0450  -16.7200 C.2     1  UNL1        0.0370
     25 CL        -35.3590  -11.3370  -17.0940 Cl      1  UNL1       -0.1260
     26  C        -31.3600  -10.7940  -17.1310 C.2     1  UNL1       -0.0160
@<TRIPOS>BOND
     1    14    12   ar
     2    11     3    1
     3     3     2   ar
     4     3     4   ar
     5    12     2    1
     6    12    13   ar
     7     2     1   ar
     8     5     4    2
     9     5     6    1
    10    16    17    1
    11    16    15    1
    12     4    10   ar
    13    17    18    1
    14    22    21    1
    15     7     6    1
    16     6     8    2
    17     1    10   ar
    18     1    15    1
    19    10     9    2
    20    20    21    1
    21    20    19    2
    22     8     9    1
    23    21    23    2
    24    18    19    1
    25    19    26    1
    26    23    25    1
    27    23    24    1
    28    26    24    2
########## Name: lig_53
########## Vina_BE: -8.861
########## MW: 374.133
########## clogP: 1.505
########## nonHatoms: 27
########## Vina_LE: -0.328
########## Vina_LipE: -10.366
########## Close_contacts: 1
########## Hydrophob_contacts: 19
########## HBonds: 1
########## Salt_Bridges: 0
########## Pi-Pi_Parallel: 0
########## Pi-Pi_Perpendicular: 0
########## Pi-Cation: 0
########## Halogen_Bonds: 1
@<TRIPOS>MOLECULE
lig_53.pdbqt
 27 29 0 0 0
SMALL
GASTEIGER

@<TRIPOS>ATOM
      1  C        -26.7870   -7.2990  -20.3940 C.ar    1  UNL1       -0.1640
      2  CA       -25.7740   -6.3910  -20.7320 C.ar    1  UNL1       -0.0500
      3  N        -26.3230   -5.0970  -20.6740 N.ar    1  UNL1       -0.2090
      4  C        -27.6520   -5.1930  -20.3210 C.ar    1  UNL1       -0.0360
      5  C        -28.5900   -4.1660  -20.1580 C.2     1  UNL1       -0.0240
      6  C        -29.9020   -4.5320  -19.7980 C.2     1  UNL1       -0.1370
      7 CL        -31.1210   -3.2960  -19.5780 Cl      1  UNL1       -0.1270
      8  C        -30.2420   -5.8920  -19.6130 C.2     1  UNL1       -0.0580
      9  C        -29.2710   -6.9010  -19.7870 C.2     1  UNL1        0.1840
     10  C        -27.9730   -6.5130  -20.1440 C.ar    1  UNL1       -0.0630
     11  H        -25.7960   -4.2600  -20.8790 H       1  UNL1        0.3140
     12  C        -24.3530   -6.6510  -21.1060 C.2     1  UNL1        0.9330
     13  O        -24.0060   -6.7000  -22.2750 O.co2   1  UNL1       -0.8180
     14  OXT      -23.5720   -6.7930  -20.1760 O.co2   1  UNL1       -0.8180
     15  C        -26.6210   -8.7970  -20.3470 C.3     1  UNL1        0.1110
     16  C        -27.4610   -9.4420  -19.2150 C.3     1  UNL1       -0.0170
     17  C        -28.2880  -10.6470  -19.7040 C.3     1  UNL1        0.2780
     18  O        -29.4140  -10.1590  -20.4620 O.2     1  UNL1       -0.3480
     19  C        -30.6910  -10.3210  -19.9830 C.2     1  UNL1        0.1430
     20  C        -31.8000  -10.2710  -20.8430 C.2     1  UNL1       -0.0060
     21  C        -33.0990  -10.4540  -20.3360 C.2     1  UNL1       -0.0430
     22  C        -34.2850  -10.3860  -21.2900 C.3     1  UNL1        0.0850
     23  C        -33.2800  -10.7010  -18.9570 C.2     1  UNL1       -0.0300
     24  C        -32.1640  -10.7700  -18.0940 C.2     1  UNL1       -0.0430
     25 CL        -34.8990  -10.9350  -18.3130 Cl      1  UNL1       -0.1380
     26  C        -30.8720  -10.5830  -18.6200 C.2     1  UNL1       -0.0060
     27  C        -32.3370  -11.0470  -16.6070 C.3     1  UNL1        0.0850
@<TRIPOS>BOND
     1    13    12   ar
     2    22    21    1
     3    12     2    1
     4    12    14   ar
     5    11     3    1
     6    20    21    1
     7    20    19    2
     8     2     3   ar
     9     2     1   ar
    10     3     4   ar
    11    18    19    1
    12    18    17    1
    13     1    15    1
    14     1    10   ar
    15    15    16    1
    16    21    23    2
    17     4     5    2
    18     4    10   ar
    19     5     6    1
    20    10     9    2
    21    19    26    1
    22     6     8    2
    23     6     7    1
    24     9     8    1
    25    17    16    1
    26    23    25    1
    27    23    24    1
    28    26    24    2
    29    24    27    1
########## Name: lig_56
########## Vina_BE: -9.061
########## MW: 349.683
########## clogP: 0.609
########## nonHatoms: 26
########## Vina_LE: -0.348
########## Vina_LipE: -9.67
########## Close_contacts: 0
########## Hydrophob_contacts: 28
########## HBonds: 2
########## Salt_Bridges: 0
########## Pi-Pi_Parallel: 0
########## Pi-Pi_Perpendicular: 0
########## Pi-Cation: 0
########## Halogen_Bonds: 0
@<TRIPOS>MOLECULE
lig_56.pdbqt
 26 28 0 0 0
SMALL
GASTEIGER

@<TRIPOS>ATOM
      1  C        -27.4320   -7.3240  -19.8320 C.ar    1  UNL1       -0.1970
      2  C        -26.2840   -6.8300  -20.5810 C.ar    1  UNL1        0.0660
      3  N        -26.5990   -5.5820  -21.1640 N.ar    1  UNL1       -0.0970
      4  C        -25.7490   -4.7550  -22.0340 C.3     1  UNL1        0.1750
      5  C        -27.8940   -5.2700  -20.7630 C.ar    1  UNL1       -0.0460
      6  C        -28.6400   -4.1120  -21.0420 C.2     1  UNL1       -0.0230
      7  C        -29.9360   -4.0050  -20.5010 C.2     1  UNL1       -0.0410
      8  C        -30.4630   -5.0360  -19.6940 C.2     1  UNL1       -0.0640
      9  C        -29.6980   -6.1880  -19.4240 C.2     1  UNL1        0.0090
     10  C        -28.4140   -6.2780  -19.9770 C.ar    1  UNL1       -0.0690
     11  C        -24.9500   -7.5110  -20.7200 C.2     1  UNL1        0.8400
     12  O        -24.0620   -7.2940  -19.9110 O.co2   1  UNL1       -0.8120
     13  O        -24.7630   -8.2590  -21.6700 O.co2   1  UNL1       -0.8120
     14  C        -27.4860   -8.6230  -19.0640 C.3     1  UNL1        0.0980
     15  C        -27.2430   -9.8520  -19.9690 C.3     1  UNL1        0.0270
     16  C        -28.5370  -10.6010  -20.3450 C.3     1  UNL1        0.2560
     17  O        -29.6420   -9.6790  -20.2610 O.2     1  UNL1       -0.3370
     18  C        -30.8880  -10.0620  -19.8200 C.2     1  UNL1        0.1610
     19  C        -31.0310  -10.3840  -18.4650 C.2     1  UNL1       -0.0360
     20  C        -32.2780  -10.7810  -17.9490 C.2     1  UNL1       -0.0350
     21  C        -32.3980  -11.1440  -16.4770 C.3     1  UNL1        0.0850
     22  C        -33.3960  -10.8410  -18.8100 C.2     1  UNL1       -0.0350
     23  C        -33.2600  -10.5100  -20.1760 C.2     1  UNL1       -0.0350
     24 CL        -34.9620  -11.3260  -18.1770 Cl      1  UNL1       -0.1280
     25  C        -32.0020  -10.1230  -20.6740 C.2     1  UNL1       -0.0360
     26  C        -34.4550  -10.5660  -21.1190 C.3     1  UNL1        0.0850
@<TRIPOS>BOND
     1     4     3    1
     2    13    11   ar
     3     3     5   ar
     4     3     2   ar
     5    26    23    1
     6     6     5    2
     7     6     7    1
     8     5    10   ar
     9    11     2    1
    10    11    12   ar
    11    25    23    1
    12    25    18    2
    13     2     1   ar
    14     7     8    2
    15    16    17    1
    16    16    15    1
    17    17    18    1
    18    23    22    2
    19    10     1   ar
    20    10     9    2
    21    15    14    1
    22     1    14    1
    23    18    19    1
    24     8     9    1
    25    22    24    1
    26    22    20    1
    27    19    20    2
    28    20    21    1
########## Name: lig_58
########## Vina_BE: -8.962
########## MW: 385.136
########## clogP: 1.372
########## nonHatoms: 27
########## Vina_LE: -0.332
########## Vina_LipE: -10.334
########## Close_contacts: 2
########## Hydrophob_contacts: 19
########## HBonds: 1
########## Salt_Bridges: 0
########## Pi-Pi_Parallel: 0
########## Pi-Pi_Perpendicular: 0
########## Pi-Cation: 0
########## Halogen_Bonds: 1
@<TRIPOS>MOLECULE
lig_58.pdbqt
 27 29 0 0 0
SMALL
GASTEIGER

@<TRIPOS>ATOM
      1  C        -26.7910   -7.2850  -20.3790 C.ar    1  UNL1       -0.1800
      2  C        -25.7520   -6.3230  -20.7240 C.ar    1  UNL1        0.0600
      3  N        -26.2820   -5.0150  -20.6740 N.ar    1  UNL1       -0.0930
      4  C        -25.5780   -3.7490  -20.9350 C.3     1  UNL1        0.1810
      5  C        -27.6230   -5.1410  -20.3260 C.ar    1  UNL1       -0.0420
      6  C        -28.5820   -4.1260  -20.1680 C.2     1  UNL1        0.0010
      7  C        -29.8940   -4.4990  -19.8170 C.2     1  UNL1        0.0120
      8 CL        -31.1200   -3.2660  -19.6100 Cl      1  UNL1       -0.1500
      9  C        -30.2310   -5.8560  -19.6340 C.2     1  UNL1       -0.0410
     10  C        -29.2560   -6.8590  -19.7990 C.2     1  UNL1        0.0370
     11  C        -27.9550   -6.4680  -20.1460 C.ar    1  UNL1       -0.0650
     12  C        -24.3280   -6.6400  -21.0910 C.2     1  UNL1        0.8390
     13  O        -23.5220   -6.8570  -20.1990 O.co2   1  UNL1       -0.8140
     14  O        -23.9820   -6.6720  -22.2620 O.co2   1  UNL1       -0.8140
     15  C        -26.6080   -8.7810  -20.3430 C.3     1  UNL1        0.1100
     16  C        -27.4390   -9.4420  -19.2140 C.3     1  UNL1       -0.0230
     17  C        -28.3000  -10.6180  -19.7190 C.3     1  UNL1        0.2740
     18  O        -29.4150  -10.0930  -20.4660 O.2     1  UNL1       -0.3490
     19  C        -30.6990  -10.2660  -20.0090 C.2     1  UNL1        0.1360
     20  C        -31.7950  -10.2340  -20.8860 C.2     1  UNL1       -0.0030
     21  C        -33.1000  -10.4280  -20.4010 C.2     1  UNL1       -0.0420
     22  C        -34.2700  -10.3780  -21.3750 C.3     1  UNL1        0.0890
     23  C        -33.3010  -10.6680  -19.0240 C.2     1  UNL1       -0.0280
     24  C        -32.2000  -10.7190  -18.1420 C.2     1  UNL1       -0.0420
     25 CL        -34.9290  -10.9130  -18.4050 Cl      1  UNL1       -0.1370
     26  C        -30.9010  -10.5220  -18.6480 C.2     1  UNL1       -0.0030
     27  C        -32.3940  -10.9880  -16.6560 C.3     1  UNL1        0.0890
@<TRIPOS>BOND
     1    14    12   ar
     2    22    21    1
     3    12     2    1
     4    12    13   ar
     5     4     3    1
     6    20    21    1
     7    20    19    2
     8     2     3   ar
     9     2     1   ar
    10     3     5   ar
    11    18    19    1
    12    18    17    1
    13    21    23    2
    14     1    15    1
    15     1    11   ar
    16    15    16    1
    17     5     6    2
    18     5    11   ar
    19     6     7    1
    20    11    10    2
    21    19    26    1
    22     7     9    2
    23     7     8    1
    24    10     9    1
    25    17    16    1
    26    23    25    1
    27    23    24    1
    28    26    24    2
    29    24    27    1
########## Name: lig_60
########## Vina_BE: -9.012
########## MW: 355.73
########## clogP: 1.475
########## nonHatoms: 25
########## Vina_LE: -0.36
########## Vina_LipE: -10.487
########## Close_contacts: 1
########## Hydrophob_contacts: 28
########## HBonds: 2
########## Salt_Bridges: 0
########## Pi-Pi_Parallel: 0
########## Pi-Pi_Perpendicular: 0
########## Pi-Cation: 0
########## Halogen_Bonds: 0
@<TRIPOS>MOLECULE
lig_60.pdbqt
 25 27 0 0 0
SMALL
GASTEIGER

@<TRIPOS>ATOM
      1  C        -27.7020   -8.6080  -18.9470 C.3     1  UNL1        0.0980
      2  C        -27.4520   -7.3600  -19.7670 C.ar    1  UNL1       -0.1170
      3  C        -26.2380   -7.0840  -20.4130 C.ar    1  UNL1       -0.0730
      4  S        -26.2580   -5.5480  -21.3240 S.2     1  UNL1        0.0590
      5  C        -27.9100   -5.2580  -20.7760 C.ar    1  UNL1       -0.1180
      6  C        -28.6800   -4.1250  -21.0780 C.2     1  UNL1        0.0270
      7  C        -28.4030   -6.2770  -19.9830 C.ar    1  UNL1       -0.0690
      8  C        -29.9800   -4.0260  -20.5500 C.2     1  UNL1       -0.0420
      9  C        -30.4890   -5.0590  -19.7380 C.2     1  UNL1       -0.0390
     10  C        -29.7020   -6.1900  -19.4530 C.2     1  UNL1        0.0130
     11  C        -24.9930   -7.9020  -20.4090 C.2     1  UNL1        0.9090
     12  O        -24.2480   -7.9100  -19.4420 O.co2   1  UNL1       -0.8140
     13  O        -24.7320   -8.5330  -21.4220 O.co2   1  UNL1       -0.8140
     14  C        -27.3110   -9.9040  -19.6980 C.3     1  UNL1        0.0340
     15  C        -28.5080  -10.6020  -20.3750 C.3     1  UNL1        0.2510
     16  O        -29.6360   -9.7080  -20.3350 O.2     1  UNL1       -0.3350
     17  C        -30.8520  -10.0730  -19.8040 C.2     1  UNL1        0.1600
     18  C        -31.9520  -10.1170  -20.6670 C.2     1  UNL1       -0.0360
     19  C        -33.2260  -10.4720  -20.1900 C.2     1  UNL1       -0.0340
     20  C        -34.4080  -10.4880  -21.1490 C.3     1  UNL1        0.0860
     21  C        -33.3860  -10.8020  -18.8260 C.2     1  UNL1       -0.0340
     22  C        -32.2780  -10.7700  -17.9530 C.2     1  UNL1       -0.0340
     23 CL        -34.9720  -11.2570  -18.2170 Cl      1  UNL1       -0.1270
     24  C        -31.0140  -10.4030  -18.4470 C.2     1  UNL1       -0.0360
     25  C        -32.4310  -11.1260  -16.4790 C.3     1  UNL1        0.0860
@<TRIPOS>BOND
     1    13    11   ar
     2     4     5   ar
     3     4     3   ar
     4    20    19    1
     5     6     5    2
     6     6     8    1
     7     5     7   ar
     8    18    19    1
     9    18    17    2
    10     8     9    2
    11     3    11    1
    12     3     2   ar
    13    11    12   ar
    14    15    16    1
    15    15    14    1
    16    16    17    1
    17    19    21    2
    18     7     2   ar
    19     7    10    2
    20    17    24    1
    21     2     1    1
    22     9    10    1
    23    14     1    1
    24    21    23    1
    25    21    22    1
    26    24    22    2
    27    22    25    1
########## Name: lig_61
########## Vina_BE: -8.64
########## MW: 391.183
########## clogP: 3.892
########## nonHatoms: 26
########## Vina_LE: -0.332
########## Vina_LipE: -12.532
########## Close_contacts: 0
########## Hydrophob_contacts: 22
########## HBonds: 2
########## Salt_Bridges: 0
########## Pi-Pi_Parallel: 0
########## Pi-Pi_Perpendicular: 0
########## Pi-Cation: 0
########## Halogen_Bonds: 0
@<TRIPOS>MOLECULE
lig_61.pdbqt
 26 28 0 0 0
SMALL
GASTEIGER

@<TRIPOS>ATOM
      1  C        -27.4180   -6.8770  -20.5210 C.ar    1  UNL1       -0.1210
      2  C        -26.0990   -6.4220  -20.6710 C.ar    1  UNL1       -0.3280
      3  S        -25.8990   -4.6850  -20.3850 S.2     1  UNL1        0.2480
      4  C        -27.6400   -4.5490  -20.1380 C.ar    1  UNL1       -0.0670
      5  C        -28.2960   -3.3360  -19.8780 C.2     1  UNL1        0.0330
      6  C        -29.6910   -3.3350  -19.7340 C.2     1  UNL1       -0.0310
      7  C        -30.4050   -4.5380  -19.8690 C.2     1  UNL1       -0.0180
      8  C        -29.7360   -5.7500  -20.1330 C.2     1  UNL1        0.0490
      9 CL        -30.7580   -7.1610  -20.3340 Cl      1  UNL1       -0.1180
     10  C        -28.3220   -5.7520  -20.2520 C.ar    1  UNL1       -0.0270
     11  C        -24.8720   -7.1830  -21.0210 C.2     1  UNL1        0.9220
     12  O        -24.1130   -7.4390  -20.1010 O.co2   1  UNL1       -0.8090
     13  O        -24.6250   -7.5030  -22.1710 O.co2   1  UNL1       -0.8090
     14  C        -27.7530   -8.3510  -20.6040 C.3     1  UNL1        0.1020
     15  C        -27.5630   -9.0720  -19.2460 C.3     1  UNL1       -0.0120
     16  C        -28.2850  -10.4330  -19.1970 C.3     1  UNL1        0.2760
     17  O        -29.3760  -10.4190  -20.1410 O.2     1  UNL1       -0.3520
     18  C        -30.6740  -10.5310  -19.7040 C.2     1  UNL1        0.1360
     19  C        -30.9690  -10.7140  -18.3430 C.2     1  UNL1       -0.0060
     20  C        -32.3060  -10.8110  -17.9150 C.2     1  UNL1       -0.0400
     21  C        -32.5980  -11.0180  -16.4350 C.3     1  UNL1        0.0910
     22  C        -33.3500  -10.7100  -18.8620 C.2     1  UNL1       -0.0280
     23  C        -33.0530  -10.5060  -20.2270 C.2     1  UNL1       -0.0400
     24 CL        -35.0240  -10.8280  -18.3380 Cl      1  UNL1       -0.1390
     25  C        -31.7110  -10.4140  -20.6370 C.2     1  UNL1       -0.0060
     26  C        -34.1640  -10.3830  -21.2630 C.3     1  UNL1        0.0910
@<TRIPOS>BOND
     1    13    11   ar
     2    26    23    1
     3    11     2    1
     4    11    12   ar
     5     2     1   ar
     6     2     3   ar
     7    25    23    1
     8    25    18    2
     9    14     1    1
    10    14    15    1
    11     1    10   ar
    12     3     4   ar
    13     9     8    1
    14    10     4   ar
    15    10     8    1
    16    23    22    2
    17    17    18    1
    18    17    16    1
    19     4     5    1
    20     8     7    2
    21     5     6    2
    22     7     6    1
    23    18    19    1
    24    15    16    1
    25    22    24    1
    26    22    20    1
    27    19    20    2
    28    20    21    1
########## Name: lig_63
########## Vina_BE: -8.467
########## MW: 391.183
########## clogP: 3.783
########## nonHatoms: 26
########## Vina_LE: -0.326
########## Vina_LipE: -12.25
########## Close_contacts: 2
########## Hydrophob_contacts: 21
########## HBonds: 1
########## Salt_Bridges: 0
########## Pi-Pi_Parallel: 0
########## Pi-Pi_Perpendicular: 0
########## Pi-Cation: 0
########## Halogen_Bonds: 1
@<TRIPOS>MOLECULE
lig_63.pdbqt
 26 28 0 0 0
SMALL
GASTEIGER

@<TRIPOS>ATOM
      1  C        -26.8870   -7.0670  -20.4840 C.ar    1  UNL1       -0.1210
      2  C        -25.7520   -6.2690  -20.6750 C.ar    1  UNL1       -0.3280
      3  S        -26.0640   -4.5270  -20.5100 S.2     1  UNL1        0.2480
      4  C        -27.7710   -4.8810  -20.2230 C.ar    1  UNL1       -0.0670
      5  C        -28.7780   -3.9270  -20.0040 C.2     1  UNL1        0.0330
      6  C        -30.0980   -4.3690  -19.8040 C.2     1  UNL1       -0.1500
      7 CL        -31.3770   -3.2040  -19.5320 Cl      1  UNL1       -0.1180
      8  C        -30.3950   -5.7450  -19.8280 C.2     1  UNL1       -0.0270
      9  C        -29.3710   -6.6850  -20.0480 C.2     1  UNL1        0.1770
     10  C        -28.0530   -6.2350  -20.2410 C.ar    1  UNL1       -0.0270
     11  C        -24.3680   -6.6930  -20.9970 C.2     1  UNL1        0.9220
     12  O        -24.0800   -6.7500  -22.1800 O.co2   1  UNL1       -0.8090
     13  O        -23.5810   -6.9880  -20.1150 O.co2   1  UNL1       -0.8090
     14  C        -26.8540   -8.5770  -20.5440 C.3     1  UNL1        0.1020
     15  C        -27.0940   -9.2080  -19.1540 C.3     1  UNL1       -0.0120
     16  C        -28.0810  -10.3870  -19.2150 C.3     1  UNL1        0.2760
     17  O        -29.1410  -10.0560  -20.1320 O.2     1  UNL1       -0.3520
     18  C        -30.4450  -10.2400  -19.7520 C.2     1  UNL1        0.1360
     19  C        -30.7280  -10.5480  -18.4170 C.2     1  UNL1       -0.0060
     20  C        -32.0570  -10.7390  -17.9970 C.2     1  UNL1       -0.0400
     21  C        -32.3420  -11.0860  -16.5420 C.3     1  UNL1        0.0910
     22  C        -33.1050  -10.6080  -18.9350 C.2     1  UNL1       -0.0280
     23  C        -32.8220  -10.2910  -20.2810 C.2     1  UNL1       -0.0400
     24 CL        -34.7710  -10.8420  -18.4220 Cl      1  UNL1       -0.1390
     25  C        -31.4850  -10.1080  -20.6820 C.2     1  UNL1       -0.0060
     26  C        -33.9380  -10.1450  -21.3060 C.3     1  UNL1        0.0910
@<TRIPOS>BOND
     1    12    11   ar
     2    26    23    1
     3    11     2    1
     4    11    13   ar
     5    25    23    1
     6    25    18    2
     7     2     3   ar
     8     2     1   ar
     9    14     1    1
    10    14    15    1
    11     3     4   ar
    12     1    10   ar
    13    23    22    2
    14    10     4   ar
    15    10     9    1
    16     4     5    1
    17    17    18    1
    18    17    16    1
    19     9     8    2
    20     5     6    2
    21     8     6    1
    22     6     7    1
    23    18    19    1
    24    16    15    1
    25    22    24    1
    26    22    20    1
    27    19    20    2
    28    20    21    1
########## Name: lig_65
########## Vina_BE: -9.043
########## MW: 391.183
########## clogP: 2.165
########## nonHatoms: 26
########## Vina_LE: -0.348
########## Vina_LipE: -11.208
########## Close_contacts: 1
########## Hydrophob_contacts: 24
########## HBonds: 2
########## Salt_Bridges: 0
########## Pi-Pi_Parallel: 0
########## Pi-Pi_Perpendicular: 0
########## Pi-Cation: 0
########## Halogen_Bonds: 0
@<TRIPOS>MOLECULE
lig_65.pdbqt
 26 28 0 0 0
SMALL
GASTEIGER

@<TRIPOS>ATOM
      1  C        -27.4660   -7.6210  -19.6770 C.ar    1  UNL1       -0.1210
      2  C        -26.2170   -7.3970  -20.2690 C.ar    1  UNL1       -0.3280
      3  S        -26.1190   -5.8700  -21.1760 S.2     1  UNL1        0.2480
      4  C        -27.8160   -5.5500  -20.7880 C.ar    1  UNL1       -0.0670
      5  C        -28.5660   -4.4370  -21.2060 C.2     1  UNL1       -0.0920
      6 CL        -27.8500   -3.1780  -22.1930 Cl      1  UNL1       -0.1180
      7  C        -29.9160   -4.3420  -20.8260 C.2     1  UNL1       -0.0250
      8  C        -30.5000   -5.3550  -20.0410 C.2     1  UNL1       -0.0270
      9  C        -29.7340   -6.4640  -19.6320 C.2     1  UNL1        0.1770
     10  C        -28.3830   -6.5440  -20.0110 C.ar    1  UNL1       -0.0270
     11  C        -25.0110   -8.2600  -20.2360 C.2     1  UNL1        0.9220
     12  O        -24.8160   -8.9640  -21.2110 O.co2   1  UNL1       -0.8090
     13  O        -24.2760   -8.2700  -19.2630 O.co2   1  UNL1       -0.8090
     14  C        -27.7740   -8.8340  -18.8320 C.3     1  UNL1        0.1020
     15  C        -27.3850  -10.1440  -19.5540 C.3     1  UNL1       -0.0120
     16  C        -28.5660  -10.7550  -20.3300 C.3     1  UNL1        0.2760
     17  O        -29.6370   -9.7920  -20.3720 O.2     1  UNL1       -0.3520
     18  C        -30.8690  -10.1020  -19.8540 C.2     1  UNL1        0.1360
     19  C        -31.9690  -10.1530  -20.7180 C.2     1  UNL1       -0.0060
     20  C        -33.2470  -10.4770  -20.2270 C.2     1  UNL1       -0.0400
     21  C        -34.4320  -10.5110  -21.1830 C.3     1  UNL1        0.0910
     22  C        -33.4110  -10.7600  -18.8530 C.2     1  UNL1       -0.0280
     23  C        -32.3000  -10.7190  -17.9800 C.2     1  UNL1       -0.0400
     24 CL        -35.0010  -11.1700  -18.2260 Cl      1  UNL1       -0.1390
     25  C        -31.0310  -10.3890  -18.4900 C.2     1  UNL1       -0.0060
     26  C        -32.4550  -11.0250  -16.4970 C.3     1  UNL1        0.0910
@<TRIPOS>BOND
     1     6     5    1
     2    12    11   ar
     3     5     7    1
     4     5     4    2
     5    21    20    1
     6     3     4   ar
     7     3     2   ar
     8     7     8    2
     9     4    10   ar
    10    19    20    1
    11    19    18    2
    12    17    16    1
    13    17    18    1
    14    16    15    1
    15     2    11    1
    16     2     1   ar
    17    11    13   ar
    18    20    22    2
    19     8     9    1
    20    10     1   ar
    21    10     9    2
    22    18    25    1
    23     1    14    1
    24    15    14    1
    25    22    24    1
    26    22    23    1
    27    25    23    2
    28    23    26    1
########## Name: lig_67
########## Vina_BE: -8.875
########## MW: 339.665
########## clogP: 1.007
########## nonHatoms: 25
########## Vina_LE: -0.355
########## Vina_LipE: -9.882
########## Close_contacts: 0
########## Hydrophob_contacts: 25
########## HBonds: 2
########## Salt_Bridges: 0
########## Pi-Pi_Parallel: 0
########## Pi-Pi_Perpendicular: 0
########## Pi-Cation: 0
########## Halogen_Bonds: 0
@<TRIPOS>MOLECULE
lig_67.pdbqt
 25 27 0 0 0
SMALL
GASTEIGER

@<TRIPOS>ATOM
      1  C        -27.6650   -8.7690  -19.0410 C.3     1  UNL1        0.0980
      2  C        -27.5650   -7.4380  -19.7390 C.ar    1  UNL1       -0.2120
      3  C        -26.3730   -6.9280  -20.4000 C.ar    1  UNL1        0.0090
      4  O        -26.6030   -5.6880  -20.9650 O.2     1  UNL1        0.0590
      5  C        -27.9150   -5.3860  -20.6970 C.ar    1  UNL1       -0.1550
      6  C        -28.6130   -4.2310  -21.0760 C.2     1  UNL1        0.0130
      7  C        -28.5270   -6.3900  -19.9750 C.ar    1  UNL1       -0.0580
      8  C        -29.9680   -4.1190  -20.7000 C.2     1  UNL1       -0.0330
      9  C        -30.5940   -5.1490  -19.9620 C.2     1  UNL1       -0.0480
     10  C        -29.8720   -6.3020  -19.5920 C.2     1  UNL1        0.0180
     11  C        -25.0260   -7.5470  -20.5370 C.2     1  UNL1        0.9360
     12  O        -24.2040   -7.4430  -19.6380 O.co2   1  UNL1       -0.7970
     13  O        -24.7850   -8.1660  -21.5620 O.co2   1  UNL1       -0.7970
     14  C        -27.3040   -9.9490  -19.9780 C.3     1  UNL1       -0.0200
     15  C        -28.5250  -10.8140  -20.3410 C.3     1  UNL1        0.2790
     16  O        -29.6400   -9.9470  -20.6310 O.2     1  UNL1       -0.3530
     17  C        -30.8740  -10.1970  -20.0840 C.2     1  UNL1        0.1350
     18  C        -32.0220  -10.2700  -20.8890 C.2     1  UNL1       -0.0070
     19  C        -33.2750  -10.5430  -20.3150 C.2     1  UNL1       -0.0400
     20  C        -34.5050  -10.6100  -21.2110 C.3     1  UNL1        0.0930
     21  C        -33.3710  -10.7560  -18.9210 C.2     1  UNL1       -0.0270
     22  C        -32.2140  -10.7010  -18.1130 C.2     1  UNL1       -0.0400
     23 CL        -34.9330  -11.1000  -18.1910 Cl      1  UNL1       -0.1370
     24  C        -30.9690  -10.4240  -18.7060 C.2     1  UNL1       -0.0070
     25  C        -32.2940  -10.9380  -16.6110 C.3     1  UNL1        0.0930
@<TRIPOS>BOND
     1    13    11   ar
     2    20    19    1
     3     6     8    1
     4     6     5    2
     5     4     5   ar
     6     4     3   ar
     7    18    19    1
     8    18    17    2
     9     8     9    2
    10     5     7   ar
    11    16    15    1
    12    16    17    1
    13    11     3    1
    14    11    12   ar
    15     3     2   ar
    16    15    14    1
    17    19    21    2
    18    17    24    1
    19    14     1    1
    20     7     2   ar
    21     7    10    2
    22     9    10    1
    23     2     1    1
    24    21    23    1
    25    21    22    1
    26    24    22    2
    27    22    25    1
########## Name: ligand
########## Vina_BE: -12.271
########## MW: 373.704
########## clogP: 1.841
########## nonHatoms: 28
########## Vina_LE: -0.438
########## Vina_LipE: -14.112
########## Close_contacts: 0
########## Hydrophob_contacts: 28
########## HBonds: 1
########## Salt_Bridges: 0
########## Pi-Pi_Parallel: 0
########## Pi-Pi_Perpendicular: 0
########## Pi-Cation: 0
########## Halogen_Bonds: 0
@<TRIPOS>MOLECULE
ligand.pdbqt
 28 32 0 0 0
SMALL
GASTEIGER

@<TRIPOS>ATOM
      1  C        -32.2110  -11.2400  -16.8340 C.2     1  UNL1        0.0110
      2  C        -33.5430  -11.2470  -17.2970 C.2     1  UNL1        0.0120
      3  C        -33.8490  -10.8000  -18.5950 C.2     1  UNL1        0.0160
      4  C        -26.6110   -7.3130  -20.3260 C.2     1  UNL1        0.0190
      5  C        -25.2850   -7.5950  -19.9350 C.2     1  UNL1       -0.1150
      6  C        -25.0220   -8.8030  -19.2640 C.2     1  UNL1        0.0410
      7  C        -26.0590   -9.7110  -19.0070 C.2     1  UNL1       -0.0250
      8  C        -29.2860  -10.7170  -20.1950 C.3     1  UNL1        0.2580
      9  C        -30.1300   -8.3660  -19.6240 C.3     1  UNL1        0.3010
     10  C        -27.6790   -8.2010  -20.0650 C.2     1  UNL1        0.0750
     11  C        -27.3740   -9.4280  -19.4100 C.2     1  UNL1        0.0310
     12  C        -30.5310   -9.8120  -20.0130 C.3     1  UNL1       -0.0410
     13  C        -32.9020   -9.8310  -20.8260 C.3     1  UNL1        0.0590
     14  N        -28.9990   -7.8520  -20.4210 N.pl3   1  UNL1       -0.6510
     15  O        -28.3030  -10.4270  -19.1870 O.2     1  UNL1       -0.3510
     16  C        -32.8020  -10.3540  -19.4140 C.2     1  UNL1       -0.0810
     17  C        -31.4890  -10.3510  -18.9650 C.2     1  UNL1       -0.0680
     18  C        -31.1710  -10.7870  -17.6690 C.2     1  UNL1        0.0660
     19 CL        -34.8250  -11.8110  -16.2480 Cl      1  UNL1       -0.1220
     20  C        -31.4240   -9.8370  -21.2940 C.3     1  UNL1        0.0350
     21  C        -24.1670   -6.6160  -20.2270 C.2     1  UNL1        0.9090
     22  O        -23.5340   -6.1710  -19.2820 O.co2   1  UNL1       -0.8300
     23  O        -23.9480   -6.3230  -21.3920 O.co2   1  UNL1       -0.8300
     24  C        -29.3220   -6.7380  -21.3380 C.3     1  UNL1        0.3130
     25  C        -30.1780   -5.6370  -20.6790 C.3     1  UNL1       -0.0270
     26  C        -29.6920   -5.0610  -19.3070 C.3     1  UNL1        0.0090
     27  C        -30.4190   -3.7460  -19.7330 C.3     1  UNL1       -0.0210
     28  C        -30.0510   -4.1630  -21.1930 C.3     1  UNL1        0.0090
@<TRIPOS>BOND
     1    23    21   ar
     2    24    25    1
     3    24    14    1
     4    20    13    1
     5    20    12    1
     6    28    25    1
     7    28    27    1
     8    13    16    1
     9    25    26    1
    10    14    10    1
    11    14     9    1
    12     4    10    2
    13     4     5    1
    14    21     5    1
    15    21    22   ar
    16     8    12    1
    17     8    15    1
    18    10    11    1
    19    12     9    1
    20    12    17    1
    21     5     6    2
    22    27    26    1
    23    16    17    2
    24    16     3    1
    25    11    15    1
    26    11     7    2
    27     6     7    1
    28    17    18    1
    29     3     2    2
    30    18     1    2
    31     2     1    1
    32     2    19    1
