########## Name: lig_27
########## Vina_BE: -8.183
########## MW: 279.205
########## clogP: -0.331
########## nonHatoms: 23
########## Vina_LE: -0.356
########## Vina_LipE: -7.852
########## Close_contacts: 0
########## Hydrophob_contacts: 23
########## HBonds: 0
########## Salt_Bridges: 0
########## Pi-Pi_Parallel: 0
########## Pi-Pi_Perpendicular: 0
########## Pi-Cation: 0
########## Halogen_Bonds: 0
@<TRIPOS>MOLECULE
lig_27.pdbqt
 23 25 0 0 0
SMALL
GASTEIGER

@<TRIPOS>ATOM
      1  CA       -28.0420   -6.3140  -20.9130 C.ar    1  UNL1        0.0410
      2  N        -26.6580   -6.2460  -21.0530 N.ar    1  UNL1       -0.2150
      3  C        -26.1940   -7.3770  -20.4150 C.ar    1  UNL1       -0.0400
      4  C        -24.8670   -7.7920  -20.2480 C.2     1  UNL1       -0.0330
      5  C        -24.6400   -8.9920  -19.5440 C.2     1  UNL1       -0.0360
      6  C        -25.7260   -9.7360  -19.0270 C.2     1  UNL1       -0.0710
      7  C        -27.0530   -9.2930  -19.2090 C.2     1  UNL1        0.0250
      8  C        -27.2630   -8.1000  -19.9160 C.ar    1  UNL1       -0.0710
      9  C        -28.4390   -7.4420  -20.2260 C.ar    1  UNL1       -0.1800
     10  H        -26.1580   -5.5000  -21.5140 H       1  UNL1        0.3100
     11  C        -28.9270   -5.2400  -21.4630 C.2     1  UNL1        0.8430
     12  O        -29.2600   -5.3630  -22.6340 O.co2   1  UNL1       -0.8210
     13  OXT      -29.2790   -4.2910  -20.7760 O.co2   1  UNL1       -0.8210
     14  C        -29.8520   -7.8680  -19.8790 C.3     1  UNL1        0.1040
     15  C        -30.3890   -8.9130  -20.8870 C.3     1  UNL1       -0.0260
     16  C        -30.5480  -10.3280  -20.2870 C.3     1  UNL1        0.2820
     17  O        -30.9270  -10.2540  -18.8940 O.2     1  UNL1       -0.3520
     18  C        -32.1770  -10.5940  -18.4250 C.2     1  UNL1        0.1340
     19  C        -32.4040  -10.9420  -17.0800 C.2     1  UNL1       -0.0120
     20  C        -33.6950  -11.2990  -16.6550 C.2     1  UNL1        0.0100
     21  C        -34.7570  -11.3220  -17.5760 C.2     1  UNL1       -0.0710
     22  C        -34.5280  -10.9910  -18.9210 C.2     1  UNL1        0.0100
     23  C        -33.2360  -10.6320  -19.3420 C.2     1  UNL1       -0.0120
@<TRIPOS>BOND
     1    12    11   ar
     2    10     2    1
     3    11     1    1
     4    11    13   ar
     5     2     1   ar
     6     2     3   ar
     7     1     9   ar
     8    15    16    1
     9    15    14    1
    10     3     4    2
    11     3     8   ar
    12    16    17    1
    13     4     5    1
    14     9     8   ar
    15     9    14    1
    16     8     7    2
    17     5     6    2
    18    23    22    1
    19    23    18    2
    20     7     6    1
    21    22    21    2
    22    17    18    1
    23    18    19    1
    24    21    20    1
    25    19    20    2
########## Name: lig_28
########## Vina_BE: -8.78
########## MW: 291.216
########## clogP: -0.176
########## nonHatoms: 24
########## Vina_LE: -0.366
########## Vina_LipE: -8.604
########## Close_contacts: 0
########## Hydrophob_contacts: 27
########## HBonds: 2
########## Salt_Bridges: 0
########## Pi-Pi_Parallel: 0
########## Pi-Pi_Perpendicular: 0
########## Pi-Cation: 0
########## Halogen_Bonds: 0
@<TRIPOS>MOLECULE
lig_28.pdbqt
 24 26 0 0 0
SMALL
GASTEIGER

@<TRIPOS>ATOM
      1  C        -27.6470   -7.8010  -19.7670 C.ar    1  UNL1       -0.1860
      2  CA       -26.3950   -7.4970  -20.4370 C.ar    1  UNL1        0.0480
      3  N        -26.3220   -6.1300  -20.7280 N.ar    1  UNL1       -0.2140
      4  C        -27.4950   -5.5570  -20.2720 C.ar    1  UNL1       -0.0430
      5  C        -27.8750   -4.2120  -20.3470 C.2     1  UNL1       -0.0330
      6  C        -29.1340   -3.8540  -19.8220 C.2     1  UNL1       -0.0390
      7  C        -29.9750   -4.8340  -19.2480 C.2     1  UNL1       -0.0730
      8  C        -29.5670   -6.1820  -19.1900 C.2     1  UNL1        0.0200
      9  C        -28.3090   -6.5170  -19.7050 C.ar    1  UNL1       -0.0730
     10  H        -25.5410   -5.6970  -21.1960 H       1  UNL1        0.3100
     11  C        -25.2790   -8.4160  -20.8060 C.2     1  UNL1        0.8380
     12  OXT      -24.8940   -9.2780  -20.0320 O.co2   1  UNL1       -0.8150
     13  O        -24.7850   -8.2500  -21.9130 O.co2   1  UNL1       -0.8150
     14  C        -28.0390   -9.1600  -19.2420 C.3     1  UNL1        0.0980
     15  C        -28.5680  -10.1000  -20.3540 C.3     1  UNL1        0.0250
     16  C        -29.7720  -10.9750  -19.9340 C.3     1  UNL1        0.2440
     17  O        -30.9570  -10.1680  -19.7780 O.2     1  UNL1       -0.3680
     18  C        -31.9490  -10.5250  -18.8940 C.2     1  UNL1        0.1200
     19  C        -31.6080  -10.7160  -17.5470 C.2     1  UNL1        0.0070
     20  C        -32.5930  -11.0750  -16.6110 C.2     1  UNL1       -0.0080
     21  C        -33.9250  -11.2270  -17.0270 C.2     1  UNL1       -0.0310
     22  C        -34.2720  -11.0150  -18.3710 C.2     1  UNL1       -0.0040
     23  C        -33.2900  -10.6560  -19.3150 C.2     1  UNL1       -0.0960
     24  C        -33.6900  -10.4330  -20.7680 C.3     1  UNL1        0.0900
@<TRIPOS>BOND
     1    13    11   ar
     2    10     3    1
     3    11     2    1
     4    11    12   ar
     5    24    23    1
     6     3     2   ar
     7     3     4   ar
     8     2     1   ar
     9    15    16    1
    10    15    14    1
    11     5     4    2
    12     5     6    1
    13     4     9   ar
    14    16    17    1
    15     6     7    2
    16    17    18    1
    17     1     9   ar
    18     1    14    1
    19     9     8    2
    20    23    18    2
    21    23    22    1
    22     7     8    1
    23    18    19    1
    24    22    21    2
    25    19    20    2
    26    21    20    1
########## Name: lig_30
########## Vina_BE: -8.871
########## MW: 291.216
########## clogP: -0.176
########## nonHatoms: 24
########## Vina_LE: -0.37
########## Vina_LipE: -8.695
########## Close_contacts: 1
########## Hydrophob_contacts: 29
########## HBonds: 2
########## Salt_Bridges: 0
########## Pi-Pi_Parallel: 0
########## Pi-Pi_Perpendicular: 0
########## Pi-Cation: 0
########## Halogen_Bonds: 0
@<TRIPOS>MOLECULE
lig_30.pdbqt
 24 26 0 0 0
SMALL
GASTEIGER

@<TRIPOS>ATOM
      1  C        -27.5630   -7.7470  -19.7800 C.ar    1  UNL1       -0.1930
      2  CA       -26.3600   -7.4680  -20.4460 C.ar    1  UNL1       -0.0370
      3  N        -26.3590   -6.0990  -20.7690 N.ar    1  UNL1       -0.2140
      4  C        -27.5300   -5.5340  -20.3150 C.ar    1  UNL1       -0.0420
      5  C        -27.9490   -4.2020  -20.4100 C.2     1  UNL1       -0.0300
      6  C        -29.2030   -3.8700  -19.8570 C.2     1  UNL1       -0.0380
      7  C        -29.9950   -4.8630  -19.2350 C.2     1  UNL1       -0.0670
      8  C        -29.5410   -6.1960  -19.1570 C.2     1  UNL1        0.0130
      9  C        -28.2900   -6.5000  -19.7120 C.ar    1  UNL1       -0.0730
     10  H        -25.5980   -5.6470  -21.2540 H       1  UNL1        0.3100
     11  C        -25.2300   -8.3800  -20.7880 C.2     1  UNL1        0.9270
     12  OXT      -24.8170   -9.2010  -19.9850 O.co2   1  UNL1       -0.8140
     13  O        -24.7550   -8.2480  -21.9080 O.co2   1  UNL1       -0.8140
     14  C        -27.9580   -9.0950  -19.2280 C.3     1  UNL1        0.0990
     15  C        -28.2990  -10.1180  -20.3350 C.3     1  UNL1        0.0220
     16  C        -29.5210  -10.9960  -19.9770 C.3     1  UNL1        0.2540
     17  O        -30.3900  -10.2850  -19.0700 O.2     1  UNL1       -0.3400
     18  C        -31.7600  -10.4440  -19.0290 C.2     1  UNL1        0.1530
     19  C        -32.4730  -10.2520  -20.2200 C.2     1  UNL1       -0.0370
     20  C        -33.8680  -10.4100  -20.2490 C.2     1  UNL1        0.0140
     21  C        -34.5550  -10.7650  -19.0770 C.2     1  UNL1       -0.0660
     22  C        -33.8520  -10.9610  -17.8750 C.2     1  UNL1       -0.0450
     23  C        -34.5890  -11.3490  -16.6050 C.3     1  UNL1        0.0690
     24  C        -32.4550  -10.8040  -17.8560 C.2     1  UNL1       -0.0500
@<TRIPOS>BOND
     1    13    11   ar
     2    10     3    1
     3    11     2    1
     4    11    12   ar
     5     3     2   ar
     6     3     4   ar
     7     2     1   ar
     8     5     4    2
     9     5     6    1
    10    15    16    1
    11    15    14    1
    12     4     9   ar
    13    20    19    1
    14    20    21    2
    15    19    18    2
    16    16    17    1
    17     6     7    2
    18     1     9   ar
    19     1    14    1
    20     9     8    2
    21     7     8    1
    22    21    22    1
    23    17    18    1
    24    18    24    1
    25    22    24    2
    26    22    23    1
########## Name: lig_31
########## Vina_BE: -9.36
########## MW: 348.211
########## clogP: 2.342
########## nonHatoms: 27
########## Vina_LE: -0.347
########## Vina_LipE: -11.702
########## Close_contacts: 1
########## Hydrophob_contacts: 23
########## HBonds: 2
########## Salt_Bridges: 0
########## Pi-Pi_Parallel: 0
########## Pi-Pi_Perpendicular: 0
########## Pi-Cation: 0
########## Halogen_Bonds: 2
@<TRIPOS>MOLECULE
lig_31.pdbqt
 27 29 0 0 0
SMALL
GASTEIGER

@<TRIPOS>ATOM
      1  C        -28.0010   -8.9420  -19.0850 C.3     1  UNL1        0.1040
      2  C        -27.5750   -7.6320  -19.7060 C.ar    1  UNL1       -0.1820
      3  C        -28.3110   -6.3880  -19.7090 C.ar    1  UNL1       -0.0710
      4  C        -29.5770   -6.0750  -19.1940 C.2     1  UNL1        0.0250
      5  C        -27.5470   -5.4400  -20.3340 C.ar    1  UNL1       -0.0390
      6  C        -30.0410   -4.7500  -19.3390 C.2     1  UNL1       -0.0680
      7  C        -29.2450   -3.7760  -19.9850 C.2     1  UNL1       -0.0330
      8  C        -27.9750   -4.1170  -20.4940 C.2     1  UNL1       -0.0310
      9  N        -26.3610   -6.0130  -20.7340 N.ar    1  UNL1       -0.2140
     10  CA       -26.3550   -7.3660  -20.3490 C.ar    1  UNL1       -0.0480
     11  H        -25.5880   -5.5710  -21.2110 H       1  UNL1        0.3110
     12  C        -25.1970   -8.2640  -20.6300 C.2     1  UNL1        0.9330
     13  OXT      -24.6180   -8.7170  -19.6550 O.co2   1  UNL1       -0.8230
     14  O        -24.8370   -8.4920  -21.7730 O.co2   1  UNL1       -0.8230
     15  C        -27.8930  -10.1230  -20.0760 C.3     1  UNL1       -0.0240
     16  C        -29.2600  -10.7640  -20.4190 C.3     1  UNL1        0.2880
     17  O        -30.3060   -9.7760  -20.2810 O.2     1  UNL1       -0.3460
     18  C        -31.6070  -10.1310  -20.0000 C.2     1  UNL1        0.1330
     19  C        -32.5920  -10.1620  -21.0000 C.2     1  UNL1        0.0660
     20  C        -33.9010  -10.5550  -20.6820 C.2     1  UNL1        0.0390
     21  C        -34.2280  -10.9120  -19.3630 C.2     1  UNL1       -0.0020
     22  C        -33.2490  -10.8800  -18.3460 C.2     1  UNL1       -0.1540
     23  C        -31.9390  -10.4730  -18.6800 C.2     1  UNL1        0.0190
     24  C        -33.6110  -11.2660  -16.9080 C.3     1  UNL1        0.6870
     25  F        -32.5170  -11.6080  -16.1960 F       1  UNL1       -0.2490
     26  F        -34.2080  -10.2540  -16.2360 F       1  UNL1       -0.2490
     27  F        -34.4600  -12.3160  -16.8410 F       1  UNL1       -0.2490
@<TRIPOS>BOND
     1    14    12   ar
     2    11     9    1
     3    19    20    1
     4    19    18    2
     5     9    10   ar
     6     9     5   ar
     7    20    21    2
     8    12    10    1
     9    12    13   ar
    10     8     5    1
    11     8     7    2
    12    16    17    1
    13    16    15    1
    14    10     2   ar
    15     5     3   ar
    16    17    18    1
    17    15     1    1
    18    18    23    1
    19     7     6    1
    20     3     2   ar
    21     3     4    1
    22     2     1    1
    23    21    22    1
    24     6     4    2
    25    23    22    2
    26    22    24    1
    27    24    27    1
    28    24    26    1
    29    24    25    1
########## Name: lig_32
########## Vina_BE: -8.905
########## MW: 291.216
########## clogP: -0.176
########## nonHatoms: 24
########## Vina_LE: -0.371
########## Vina_LipE: -8.729
########## Close_contacts: 1
########## Hydrophob_contacts: 26
########## HBonds: 2
########## Salt_Bridges: 0
########## Pi-Pi_Parallel: 0
########## Pi-Pi_Perpendicular: 0
########## Pi-Cation: 0
########## Halogen_Bonds: 0
@<TRIPOS>MOLECULE
lig_32.pdbqt
 24 26 0 0 0
SMALL
GASTEIGER

@<TRIPOS>ATOM
      1  C        -27.5910   -7.6910  -19.7450 C.ar    1  UNL1       -0.1930
      2  CA       -26.3580   -7.4220  -20.3540 C.ar    1  UNL1       -0.0370
      3  N        -26.3470   -6.0610  -20.7150 N.ar    1  UNL1       -0.2140
      4  C        -27.5350   -5.4870  -20.3170 C.ar    1  UNL1       -0.0430
      5  C        -27.9430   -4.1530  -20.4350 C.2     1  UNL1       -0.0300
      6  C        -29.2110   -3.8100  -19.9210 C.2     1  UNL1       -0.0380
      7  C        -30.0250   -4.7920  -19.3110 C.2     1  UNL1       -0.0670
      8  C        -29.5820   -6.1270  -19.2100 C.2     1  UNL1        0.0140
      9  C        -28.3200   -6.4430  -19.7290 C.ar    1  UNL1       -0.0720
     10  H        -25.5640   -5.6150  -21.1680 H       1  UNL1        0.3100
     11  C        -25.2010   -8.3310  -20.6040 C.2     1  UNL1        0.9270
     12  OXT      -24.6630   -8.9350  -19.6890 O.co2   1  UNL1       -0.8150
     13  O        -24.8200   -8.4060  -21.7640 O.co2   1  UNL1       -0.8150
     14  C        -28.0040   -9.0240  -19.1690 C.3     1  UNL1        0.0980
     15  C        -28.0580  -10.1370  -20.2410 C.3     1  UNL1        0.0230
     16  C        -29.4180  -10.8640  -20.2920 C.3     1  UNL1        0.2520
     17  O        -30.4590   -9.9240  -19.9640 O.2     1  UNL1       -0.3390
     18  C        -31.5150  -10.2870  -19.1630 C.2     1  UNL1        0.1480
     19  C        -32.8140  -10.4440  -19.6780 C.2     1  UNL1       -0.0390
     20  C        -33.8650  -10.8310  -18.8300 C.2     1  UNL1        0.0230
     21  C        -33.6250  -11.0650  -17.4640 C.2     1  UNL1       -0.1370
     22  C        -34.7650  -11.4820  -16.5490 C.3     1  UNL1        0.0600
     23  C        -32.3220  -10.9160  -16.9550 C.2     1  UNL1        0.0230
     24  C        -31.2710  -10.5330  -17.8050 C.2     1  UNL1       -0.0390
@<TRIPOS>BOND
     1    13    11   ar
     2    10     3    1
     3     3     2   ar
     4     3     4   ar
     5    11     2    1
     6    11    12   ar
     7     5     4    2
     8     5     6    1
     9     2     1   ar
    10     4     9   ar
    11    16    15    1
    12    16    17    1
    13    15    14    1
    14    17    18    1
    15     6     7    2
    16     1     9   ar
    17     1    14    1
    18     9     8    2
    19    19    18    2
    20    19    20    1
    21     7     8    1
    22    18    24    1
    23    20    21    2
    24    24    23    2
    25    21    23    1
    26    21    22    1
########## Name: lig_33
########## Vina_BE: -8.553
########## MW: 314.658
########## clogP: 0.432
########## nonHatoms: 24
########## Vina_LE: -0.356
########## Vina_LipE: -8.985
########## Close_contacts: 0
########## Hydrophob_contacts: 23
########## HBonds: 2
########## Salt_Bridges: 0
########## Pi-Pi_Parallel: 0
########## Pi-Pi_Perpendicular: 0
########## Pi-Cation: 0
########## Halogen_Bonds: 0
@<TRIPOS>MOLECULE
lig_33.pdbqt
 24 26 0 0 0
SMALL
GASTEIGER

@<TRIPOS>ATOM
      1  CA       -26.3420   -7.3000  -20.3580 C.ar    1  UNL1       -0.0480
      2  N        -26.3520   -5.9370  -20.7030 N.ar    1  UNL1       -0.2140
      3  C        -27.5520   -5.3860  -20.3060 C.ar    1  UNL1       -0.0400
      4  C        -27.9990   -4.0690  -20.4570 C.2     1  UNL1       -0.0310
      5  C        -29.2830   -3.7550  -19.9660 C.2     1  UNL1       -0.0350
      6  C        -30.0760   -4.7490  -19.3480 C.2     1  UNL1       -0.0700
      7  C        -29.5940   -6.0700  -19.2140 C.2     1  UNL1        0.0250
      8  C        -28.3140   -6.3540  -19.7090 C.ar    1  UNL1       -0.0710
      9  C        -27.5600   -7.5860  -19.7240 C.ar    1  UNL1       -0.1810
     10  H        -25.5860   -5.4800  -21.1770 H       1  UNL1        0.3100
     11  C        -25.1970   -8.2110  -20.6600 C.2     1  UNL1        0.9320
     12  O        -24.8230   -8.2340  -21.8240 O.co2   1  UNL1       -0.8210
     13  OXT      -24.6850   -8.8990  -19.7880 O.co2   1  UNL1       -0.8210
     14  C        -27.9410   -8.9460  -19.2010 C.3     1  UNL1        0.1060
     15  C        -28.0380   -9.9900  -20.3390 C.3     1  UNL1       -0.0250
     16  C        -29.3430  -10.8180  -20.3230 C.3     1  UNL1        0.2840
     17  O        -30.4860   -9.9710  -20.0620 O.2     1  UNL1       -0.3480
     18  C        -31.5000  -10.2940  -19.1870 C.2     1  UNL1        0.1390
     19  C        -32.7850  -10.4790  -19.7150 C.2     1  UNL1        0.0010
     20  C        -33.8540  -10.8370  -18.8770 C.2     1  UNL1        0.0380
     21  C        -33.6320  -11.0200  -17.5020 C.2     1  UNL1       -0.0310
     22 CL        -34.9620  -11.4690  -16.4550 Cl      1  UNL1       -0.1370
     23  C        -32.3460  -10.8450  -16.9670 C.2     1  UNL1        0.0380
     24  C        -31.2770  -10.4900  -17.8100 C.2     1  UNL1        0.0010
@<TRIPOS>BOND
     1    12    11   ar
     2    10     2    1
     3     2     1   ar
     4     2     3   ar
     5    11     1    1
     6    11    13   ar
     7     4     3    2
     8     4     5    1
     9     1     9   ar
    10    15    16    1
    11    15    14    1
    12    16    17    1
    13     3     8   ar
    14    17    18    1
    15     5     6    2
    16     9     8   ar
    17     9    14    1
    18    19    18    2
    19    19    20    1
    20     8     7    2
    21     6     7    1
    22    18    24    1
    23    20    21    2
    24    24    23    2
    25    21    23    1
    26    21    22    1
########## Name: lig_34
########## Vina_BE: -9.378
########## MW: 348.211
########## clogP: 2.342
########## nonHatoms: 27
########## Vina_LE: -0.347
########## Vina_LipE: -11.72
########## Close_contacts: 0
########## Hydrophob_contacts: 25
########## HBonds: 2
########## Salt_Bridges: 0
########## Pi-Pi_Parallel: 0
########## Pi-Pi_Perpendicular: 0
########## Pi-Cation: 0
########## Halogen_Bonds: 0
@<TRIPOS>MOLECULE
lig_34.pdbqt
 27 29 0 0 0
SMALL
GASTEIGER

@<TRIPOS>ATOM
      1  C        -27.4860   -8.6250  -19.1750 C.3     1  UNL1        0.1040
      2  C        -27.2810   -7.2760  -19.8250 C.ar    1  UNL1       -0.1820
      3  C        -28.1790   -6.1440  -19.7940 C.ar    1  UNL1       -0.0710
      4  C        -29.4450   -6.0000  -19.2100 C.2     1  UNL1        0.0250
      5  C        -27.5850   -5.1090  -20.4620 C.ar    1  UNL1       -0.0390
      6  C        -30.0920   -4.7520  -19.3290 C.2     1  UNL1       -0.0680
      7  C        -29.4710   -3.6850  -20.0180 C.2     1  UNL1       -0.0330
      8  C        -28.1970   -3.8560  -20.5970 C.2     1  UNL1       -0.0310
      9  N        -26.3540   -5.5180  -20.9220 N.ar    1  UNL1       -0.2140
     10  CA       -26.1420   -6.8530  -20.5310 C.ar    1  UNL1       -0.0480
     11  H        -25.6750   -4.9810  -21.4380 H       1  UNL1        0.3110
     12  C        -24.8880   -7.5900  -20.8650 C.2     1  UNL1        0.9330
     13  OXT      -24.7430   -7.9020  -22.0360 O.co2   1  UNL1       -0.8230
     14  O        -24.0820   -7.8910  -19.9980 O.co2   1  UNL1       -0.8230
     15  C        -27.3670   -9.7900  -20.1830 C.3     1  UNL1       -0.0240
     16  C        -28.6810  -10.5920  -20.3550 C.3     1  UNL1        0.2880
     17  O        -29.8150   -9.7150  -20.1620 O.2     1  UNL1       -0.3460
     18  C        -30.9500  -10.1210  -19.4930 C.2     1  UNL1        0.1330
     19  C        -30.9310  -10.4800  -18.1360 C.2     1  UNL1        0.0660
     20  C        -32.1190  -10.8560  -17.4850 C.2     1  UNL1        0.0390
     21  C        -33.3440  -10.8840  -18.1870 C.2     1  UNL1       -0.1370
     22  C        -33.3500  -10.5340  -19.5540 C.2     1  UNL1       -0.0190
     23  C        -32.1600  -10.1610  -20.2010 C.2     1  UNL1        0.0190
     24  C        -34.6560  -11.2700  -17.4920 C.3     1  UNL1        0.6870
     25  F        -34.9390  -12.5830  -17.6470 F       1  UNL1       -0.2490
     26  F        -34.6540  -11.0370  -16.1610 F       1  UNL1       -0.2490
     27  F        -35.7050  -10.5900  -18.0030 F       1  UNL1       -0.2490
@<TRIPOS>BOND
     1    13    12   ar
     2    11     9    1
     3     9    10   ar
     4     9     5   ar
     5    12    10    1
     6    12    14   ar
     7     8     5    1
     8     8     7    2
     9    10     2   ar
    10     5     3   ar
    11    16    15    1
    12    16    17    1
    13    23    22    1
    14    23    18    2
    15    15     1    1
    16    17    18    1
    17     7     6    1
    18     2     3   ar
    19     2     1    1
    20     3     4    1
    21    22    21    2
    22    18    19    1
    23     6     4    2
    24    21    24    1
    25    21    20    1
    26    19    20    2
    27    27    24    1
    28    25    24    1
    29    24    26    1
########## Name: lig_35
########## Vina_BE: -8.66
########## MW: 326.669
########## clogP: 0.587
########## nonHatoms: 25
########## Vina_LE: -0.346
########## Vina_LipE: -9.247
########## Close_contacts: 0
########## Hydrophob_contacts: 27
########## HBonds: 2
########## Salt_Bridges: 0
########## Pi-Pi_Parallel: 0
########## Pi-Pi_Perpendicular: 0
########## Pi-Cation: 0
########## Halogen_Bonds: 0
@<TRIPOS>MOLECULE
lig_35.pdbqt
 25 27 0 0 0
SMALL
GASTEIGER

@<TRIPOS>ATOM
      1  C        -27.1990   -7.2800  -19.9070 C.ar    1  UNL1       -0.1950
      2  CA       -26.1300   -6.7880  -20.6700 C.ar    1  UNL1       -0.0370
      3  N        -26.4550   -5.4760  -21.0600 N.ar    1  UNL1       -0.2140
      4  C        -27.6790   -5.1420  -20.5240 C.ar    1  UNL1       -0.0420
      5  C        -28.3680   -3.9260  -20.6110 C.2     1  UNL1       -0.0290
      6  C        -29.6040   -3.8270  -19.9400 C.2     1  UNL1       -0.0370
      7  C        -30.1090   -4.9240  -19.2040 C.2     1  UNL1       -0.0660
      8  C        -29.3870   -6.1340  -19.1380 C.2     1  UNL1        0.0110
      9  C        -28.1660   -6.2100  -19.8190 C.ar    1  UNL1       -0.0740
     10  H        -25.8420   -4.8960  -21.6140 H       1  UNL1        0.3110
     11  C        -24.8400   -7.4430  -21.0340 C.2     1  UNL1        0.9270
     12  OXT      -24.6490   -7.8800  -22.1580 O.co2   1  UNL1       -0.8140
     13  O        -24.0170   -7.5420  -20.1350 O.co2   1  UNL1       -0.8140
     14  C        -27.2520   -8.6460  -19.2650 C.3     1  UNL1        0.0980
     15  C        -27.4790   -9.7700  -20.3020 C.3     1  UNL1        0.0260
     16  C        -28.8690  -10.4260  -20.1830 C.3     1  UNL1        0.2600
     17  O        -29.5620   -9.8370  -19.0670 O.2     1  UNL1       -0.3380
     18  C        -30.8360  -10.2040  -18.6920 C.2     1  UNL1        0.1580
     19  C        -31.8190  -10.2360  -19.6910 C.2     1  UNL1       -0.0400
     20  C        -33.1470  -10.5900  -19.3860 C.2     1  UNL1       -0.0300
     21  C        -34.1990  -10.6050  -20.4860 C.3     1  UNL1        0.0910
     22  C        -33.4820  -10.9180  -18.0560 C.2     1  UNL1       -0.0360
     23  C        -32.5010  -10.8850  -17.0510 C.2     1  UNL1        0.0390
     24 CL        -35.1190  -11.3690  -17.6150 Cl      1  UNL1       -0.1280
     25  C        -31.1790  -10.5270  -17.3660 C.2     1  UNL1       -0.0260
@<TRIPOS>BOND
     1    12    11   ar
     2    10     3    1
     3     3     2   ar
     4     3     4   ar
     5    11     2    1
     6    11    13   ar
     7     2     1   ar
     8     5     4    2
     9     5     6    1
    10     4     9   ar
    11    21    20    1
    12    15    16    1
    13    15    14    1
    14    16    17    1
    15     6     7    2
    16     1     9   ar
    17     1    14    1
    18     9     8    2
    19    19    20    1
    20    19    18    2
    21    20    22    2
    22     7     8    1
    23    17    18    1
    24    18    25    1
    25    22    24    1
    26    22    23    1
    27    25    23    2
########## Name: lig_36
########## Vina_BE: -8.533
########## MW: 338.68
########## clogP: 0.668
########## nonHatoms: 26
########## Vina_LE: -0.328
########## Vina_LipE: -9.201
########## Close_contacts: 1
########## Hydrophob_contacts: 30
########## HBonds: 2
########## Salt_Bridges: 0
########## Pi-Pi_Parallel: 0
########## Pi-Pi_Perpendicular: 0
########## Pi-Cation: 0
########## Halogen_Bonds: 0
@<TRIPOS>MOLECULE
lig_36.pdbqt
 26 28 0 0 0
SMALL
GASTEIGER

@<TRIPOS>ATOM
      1  C        -27.1690   -7.4690  -19.8100 C.ar    1  UNL1       -0.1820
      2  CA       -26.1080   -6.9800  -20.6780 C.ar    1  UNL1        0.0400
      3  N        -26.4080   -5.6910  -21.1280 N.ar    1  UNL1       -0.2140
      4  C        -27.6230   -5.3400  -20.5750 C.ar    1  UNL1       -0.0400
      5  C        -28.3230   -4.1390  -20.7400 C.2     1  UNL1       -0.0310
      6  C        -29.5590   -4.0010  -20.0750 C.2     1  UNL1       -0.0350
      7  C        -30.0600   -5.0490  -19.2700 C.2     1  UNL1       -0.0700
      8  C        -29.3330   -6.2490  -19.1210 C.2     1  UNL1        0.0250
      9  C        -28.1070   -6.3660  -19.7900 C.ar    1  UNL1       -0.0700
     10  H        -25.8090   -5.1590  -21.7420 H       1  UNL1        0.3100
     11  C        -24.8460   -7.6500  -21.1060 C.2     1  UNL1        0.8430
     12  O        -24.1410   -8.2370  -20.3020 O.co2   1  UNL1       -0.8210
     13  OXT      -24.5870   -7.6080  -22.3000 O.co2   1  UNL1       -0.8210
     14  C        -27.2150   -8.8120  -19.1200 C.3     1  UNL1        0.1050
     15  C        -27.4640   -9.9690  -20.1160 C.3     1  UNL1       -0.0250
     16  C        -28.8810  -10.5680  -19.9970 C.3     1  UNL1        0.2860
     17  O        -29.4930  -10.0270  -18.8100 O.2     1  UNL1       -0.3480
     18  C        -30.7940  -10.3360  -18.5030 C.2     1  UNL1        0.1410
     19  C        -31.7570  -10.3210  -19.5220 C.2     1  UNL1       -0.0340
     20  C        -33.1050  -10.6170  -19.2420 C.2     1  UNL1       -0.0570
     21  C        -33.4780  -10.9180  -17.9130 C.2     1  UNL1       -0.0260
     22  C        -32.5130  -10.9170  -16.8900 C.2     1  UNL1        0.0580
     23 CL        -35.1400  -11.2800  -17.4790 Cl      1  UNL1       -0.1370
     24  C        -31.1710  -10.6230  -17.1840 C.2     1  UNL1        0.0360
     25  C        -34.1220  -10.5860  -20.3780 C.3     1  UNL1        0.0570
     26  C        -33.8020   -9.4860  -21.4100 C.3     1  UNL1        0.0110
@<TRIPOS>BOND
     1    13    11   ar
     2    10     3    1
     3    26    25    1
     4     3     2   ar
     5     3     4   ar
     6    11     2    1
     7    11    12   ar
     8     5     4    2
     9     5     6    1
    10     2     1   ar
    11     4     9   ar
    12    25    20    1
    13    15    16    1
    14    15    14    1
    15     6     7    2
    16    16    17    1
    17     1     9   ar
    18     1    14    1
    19     9     8    2
    20    19    20    1
    21    19    18    2
    22     7     8    1
    23    20    21    2
    24    17    18    1
    25    18    24    1
    26    21    23    1
    27    21    22    1
    28    24    22    2
########## Name: lig_37
########## Vina_BE: -8.852
########## MW: 338.68
########## clogP: 0.742
########## nonHatoms: 26
########## Vina_LE: -0.34
########## Vina_LipE: -9.594
########## Close_contacts: 0
########## Hydrophob_contacts: 25
########## HBonds: 0
########## Salt_Bridges: 0
########## Pi-Pi_Parallel: 0
########## Pi-Pi_Perpendicular: 0
########## Pi-Cation: 0
########## Halogen_Bonds: 0
@<TRIPOS>MOLECULE
lig_37.pdbqt
 26 28 0 0 0
SMALL
GASTEIGER

@<TRIPOS>ATOM
      1  C        -31.3410  -10.4380  -18.7450 C.ar    1  UNL1       -0.2010
      2  CA       -31.7520  -10.2090  -20.1210 C.ar    1  UNL1        0.0730
      3  N        -33.1370  -10.3690  -20.2400 N.ar    1  UNL1       -0.2220
      4  C        -33.6150  -10.7020  -18.9870 C.ar    1  UNL1       -0.0430
      5  C        -34.9410  -10.9680  -18.6220 C.2     1  UNL1       -0.0310
      6  C        -35.2000  -11.2960  -17.2760 C.2     1  UNL1       -0.0380
      7  C        -34.1450  -11.3520  -16.3360 C.2     1  UNL1       -0.0640
      8  C        -32.8180  -11.0810  -16.7320 C.2     1  UNL1        0.0190
      9  C        -32.5820  -10.7550  -18.0740 C.ar    1  UNL1       -0.0560
     10  H        -33.6410  -10.2620  -21.1070 H       1  UNL1        0.2980
     11  C        -30.9110   -9.8610  -21.3070 C.2     1  UNL1        0.8300
     12  O        -31.0490   -8.7980  -21.8920 O.co2   1  UNL1       -0.8100
     13  OXT      -30.0790  -10.6930  -21.6440 O.co2   1  UNL1       -0.8100
     14  C        -29.9170  -10.3680  -18.2550 C.3     1  UNL1        0.0940
     15  C        -29.3740   -8.9170  -18.2500 C.3     1  UNL1       -0.0200
     16  C        -28.0190   -8.7890  -18.9740 C.3     1  UNL1        0.2770
     17  O        -28.2150   -8.0650  -20.2060 O.2     1  UNL1       -0.3530
     18  C        -28.1660   -6.6930  -20.2200 C.2     1  UNL1        0.1400
     19  C        -29.2870   -5.9210  -19.8740 C.2     1  UNL1       -0.0100
     20  C        -29.2130   -4.5180  -19.8800 C.2     1  UNL1       -0.0400
     21  C        -30.4480   -3.7070  -19.5100 C.3     1  UNL1        0.0910
     22  C        -27.9960   -3.8870  -20.2220 C.2     1  UNL1       -0.0290
     23  C        -26.8610   -4.6610  -20.5510 C.2     1  UNL1       -0.0400
     24 CL        -27.8890   -2.1320  -20.2290 Cl      1  UNL1       -0.1380
     25  C        -26.9570   -6.0640  -20.5420 C.2     1  UNL1       -0.0100
     26  C        -25.5370   -4.0010  -20.9110 C.3     1  UNL1        0.0910
@<TRIPOS>BOND
     1    12    11   ar
     2    13    11   ar
     3    11     2    1
     4    10     3    1
     5    26    23    1
     6    23    25    1
     7    23    22    2
     8    25    18    2
     9     3     2   ar
    10     3     4   ar
    11    24    22    1
    12    22    20    1
    13    18    17    1
    14    18    19    1
    15    17    16    1
    16     2     1   ar
    17    20    19    2
    18    20    21    1
    19     4     5    2
    20     4     9   ar
    21    16    15    1
    22     1    14    1
    23     1     9   ar
    24     5     6    1
    25    14    15    1
    26     9     8    2
    27     6     7    2
    28     8     7    1
########## Name: lig_43
########## Vina_BE: -10.099
########## MW: 327.248
########## clogP: 1.685
########## nonHatoms: 27
########## Vina_LE: -0.374
########## Vina_LipE: -11.784
########## Close_contacts: 0
########## Hydrophob_contacts: 31
########## HBonds: 2
########## Salt_Bridges: 0
########## Pi-Pi_Parallel: 0
########## Pi-Pi_Perpendicular: 0
########## Pi-Cation: 0
########## Halogen_Bonds: 0
@<TRIPOS>MOLECULE
lig_43.pdbqt
 27 30 0 0 0
SMALL
GASTEIGER

@<TRIPOS>ATOM
      1  C        -27.7820   -8.6430  -19.0680 C.3     1  UNL1        0.1050
      2  C        -27.4520   -7.3220  -19.7230 C.ar    1  UNL1       -0.1800
      3  C        -28.2660   -6.1270  -19.7390 C.ar    1  UNL1       -0.0710
      4  C        -29.5400   -5.8860  -19.2100 C.2     1  UNL1        0.0250
      5  C        -27.5700   -5.1460  -20.3880 C.ar    1  UNL1       -0.0400
      6  C        -30.0890   -4.5950  -19.3680 C.2     1  UNL1       -0.0700
      7  C        -29.3640   -3.5840  -20.0400 C.2     1  UNL1       -0.0350
      8  C        -28.0820   -3.8530  -20.5610 C.2     1  UNL1       -0.0330
      9  N        -26.3540   -5.6480  -20.7930 N.ar    1  UNL1       -0.2140
     10  CA       -26.2550   -6.9900  -20.3790 C.ar    1  UNL1       -0.0480
     11  H        -25.6140   -5.1650  -21.2800 H       1  UNL1        0.3100
     12  C        -25.0360   -7.8100  -20.6430 C.2     1  UNL1        0.9320
     13  O        -24.3100   -8.0160  -19.6830 O.co2   1  UNL1       -0.8220
     14  OXT      -24.7800   -8.2220  -21.7620 O.co2   1  UNL1       -0.8220
     15  C        -27.4630   -9.8510  -19.9790 C.3     1  UNL1       -0.0240
     16  C        -28.7170  -10.6690  -20.3770 C.3     1  UNL1        0.2800
     17  O        -29.8600   -9.7890  -20.4770 O.2     1  UNL1       -0.3510
     18  C        -31.0960  -10.1360  -19.9710 C.2     1  UNL1        0.1230
     19  C        -32.2050  -10.1230  -20.8310 C.2     1  UNL1       -0.0090
     20  C        -33.4890  -10.4250  -20.3400 C.2     1  UNL1       -0.0040
     21  C        -33.6640  -10.7430  -18.9810 C.2     1  UNL1       -0.0700
     22  C        -34.9440  -11.0290  -18.4700 C.2     1  UNL1       -0.0070
     23  C        -32.5470  -10.7710  -18.1200 C.2     1  UNL1       -0.0050
     24  C        -35.1070  -11.3360  -17.1080 C.2     1  UNL1       -0.0330
     25  C        -33.9930  -11.3580  -16.2520 C.2     1  UNL1       -0.0250
     26  C        -32.7130  -11.0750  -16.7580 C.2     1  UNL1        0.0610
     27  C        -31.2690  -10.4800  -18.6190 C.2     1  UNL1        0.0260
@<TRIPOS>BOND
     1    14    12   ar
     2    11     9    1
     3    19    20    1
     4    19    18    2
     5     9     5   ar
     6     9    10   ar
     7    12    10    1
     8    12    13   ar
     9     8     5    1
    10     8     7    2
    11    17    16    1
    12    17    18    1
    13     5     3   ar
    14    10     2   ar
    15    16    15    1
    16    20    21    2
    17     7     6    1
    18    15     1    1
    19    18    27    1
    20     3     2   ar
    21     3     4    1
    22     2     1    1
    23     6     4    2
    24    21    22    1
    25    21    23    1
    26    27    23    2
    27    22    24    2
    28    23    26    1
    29    24    25    1
    30    26    25    2
########## Name: lig_46
########## Vina_BE: -9.589
########## MW: 315.238
########## clogP: 0.06
########## nonHatoms: 26
########## Vina_LE: -0.369
########## Vina_LipE: -9.649
########## Close_contacts: 0
########## Hydrophob_contacts: 32
########## HBonds: 2
########## Salt_Bridges: 0
########## Pi-Pi_Parallel: 0
########## Pi-Pi_Perpendicular: 0
########## Pi-Cation: 0
########## Halogen_Bonds: 0
@<TRIPOS>MOLECULE
lig_46.pdbqt
 26 29 0 0 0
SMALL
GASTEIGER

@<TRIPOS>ATOM
      1  CA       -26.2730   -7.1880  -20.3760 C.ar    1  UNL1        0.0410
      2  N        -26.2870   -5.8470  -20.7590 N.ar    1  UNL1       -0.2150
      3  C        -27.5170   -5.3850  -20.3430 C.ar    1  UNL1       -0.0400
      4  C        -28.0480   -4.0960  -20.4800 C.2     1  UNL1       -0.0330
      5  C        -29.3410   -3.8640  -19.9700 C.2     1  UNL1       -0.0360
      6  C        -30.0620   -4.9060  -19.3430 C.2     1  UNL1       -0.0710
      7  C        -29.5000   -6.1950  -19.2190 C.2     1  UNL1        0.0250
      8  C        -28.2130   -6.4100  -19.7310 C.ar    1  UNL1       -0.0710
      9  C        -27.4420   -7.5590  -19.7410 C.ar    1  UNL1       -0.1800
     10  H        -25.5340   -5.3730  -21.2350 H       1  UNL1        0.3100
     11  C        -25.0820   -8.0430  -20.6700 C.2     1  UNL1        0.8430
     12  OXT      -24.8190   -8.2130  -21.8520 O.co2   1  UNL1       -0.8210
     13  O        -24.4450   -8.5740  -19.7740 O.co2   1  UNL1       -0.8210
     14  C        -27.8390   -8.9020  -19.1530 C.3     1  UNL1        0.1040
     15  C        -27.6790  -10.0680  -20.1550 C.3     1  UNL1       -0.0250
     16  C        -28.9990  -10.8340  -20.4230 C.3     1  UNL1        0.2810
     17  O        -30.1070   -9.9080  -20.4070 O.2     1  UNL1       -0.3520
     18  C        -31.3190  -10.2080  -19.8170 C.2     1  UNL1        0.1360
     19  C        -32.4650  -10.2020  -20.6360 C.2     1  UNL1       -0.0540
     20  C        -33.7360  -10.4870  -20.0990 C.2     1  UNL1        0.0120
     21  C        -33.8340  -10.7780  -18.7320 C.2     1  UNL1       -0.1440
     22  C        -32.7070  -10.7950  -17.9240 C.2     1  UNL1       -0.0520
     23  C        -35.0830  -11.1060  -17.9480 C.3     1  UNL1        0.0490
     24  C        -31.4370  -10.5150  -18.4440 C.2     1  UNL1        0.0400
     25  C        -33.0470  -11.1390  -16.4950 C.3     1  UNL1        0.0880
     26  C        -34.5360  -11.5770  -16.5720 C.3     1  UNL1       -0.0140
@<TRIPOS>BOND
     1    12    11   ar
     2    10     2    1
     3     2     1   ar
     4     2     3   ar
     5    11     1    1
     6    11    13   ar
     7    19    20    1
     8    19    18    2
     9     4     3    2
    10     4     5    1
    11    16    17    1
    12    16    15    1
    13    17    18    1
    14     1     9   ar
    15     3     8   ar
    16    15    14    1
    17    20    21    2
    18     5     6    2
    19    18    24    1
    20     9     8   ar
    21     9    14    1
    22     8     7    2
    23     6     7    1
    24    21    23    1
    25    21    22    1
    26    24    22    2
    27    23    26    1
    28    22    25    1
    29    26    25    1
########## Name: lig_47
########## Vina_BE: -9.406
########## MW: 329.244
########## clogP: 0.864
########## nonHatoms: 27
########## Vina_LE: -0.348
########## Vina_LipE: -10.27
########## Close_contacts: 0
########## Hydrophob_contacts: 25
########## HBonds: 2
########## Salt_Bridges: 0
########## Pi-Pi_Parallel: 0
########## Pi-Pi_Perpendicular: 0
########## Pi-Cation: 0
########## Halogen_Bonds: 0
@<TRIPOS>MOLECULE
lig_47.pdbqt
 27 30 0 0 0
SMALL
GASTEIGER

@<TRIPOS>ATOM
      1  C        -27.5930   -8.6040  -19.1230 C.3     1  UNL1        0.0930
      2  C        -27.3490   -7.2630  -19.7790 C.ar    1  UNL1       -0.1990
      3  C        -28.2250   -6.1130  -19.7670 C.ar    1  UNL1       -0.0570
      4  C        -29.4800   -5.9240  -19.1710 C.2     1  UNL1        0.0210
      5  C        -27.6160   -5.1050  -20.4630 C.ar    1  UNL1       -0.0420
      6  C        -30.1030   -4.6670  -19.3180 C.2     1  UNL1       -0.0640
      7  C        -29.4690   -3.6320  -20.0420 C.2     1  UNL1       -0.0370
      8  C        -28.2020   -3.8450  -20.6260 C.2     1  UNL1       -0.0300
      9  N        -26.3940   -5.5460  -20.9150 N.ar    1  UNL1       -0.2230
     10  CA       -26.1970   -6.8710  -20.4840 C.ar    1  UNL1       -0.0140
     11  H        -25.7040   -5.0250  -21.4360 H       1  UNL1        0.2970
     12  C        -24.9360   -7.6190  -20.7830 C.2     1  UNL1        0.9180
     13  OXT      -24.7890   -7.9850  -21.9390 O.co2   1  UNL1       -0.8120
     14  O        -24.1120   -7.8620  -19.9160 O.co2   1  UNL1       -0.8120
     15  C        -27.4050   -9.7870  -20.1020 C.3     1  UNL1       -0.0190
     16  C        -28.7080  -10.5770  -20.3800 C.3     1  UNL1        0.2750
     17  O        -29.8400   -9.6750  -20.3730 O.2     1  UNL1       -0.3530
     18  C        -31.0800  -10.0560  -19.9040 C.2     1  UNL1        0.1180
     19  C        -32.1740  -10.0420  -20.7810 C.2     1  UNL1       -0.0080
     20  C        -33.4590  -10.3850  -20.3150 C.2     1  UNL1       -0.0380
     21  C        -33.6710  -10.7380  -18.9710 C.2     1  UNL1        0.3580
     22  N        -34.9150  -11.0400  -18.5450 N.2     1  UNL1       -0.6790
     23  C        -32.5590  -10.7580  -18.0990 C.2     1  UNL1       -0.1170
     24  C        -35.0900  -11.3590  -17.2490 C.2     1  UNL1        0.3890
     25  C        -34.0400  -11.3920  -16.3170 C.2     1  UNL1       -0.1390
     26  C        -32.7400  -11.0840  -16.7470 C.2     1  UNL1        0.1450
     27  C        -31.2750  -10.4390  -18.5680 C.2     1  UNL1        0.0340
@<TRIPOS>BOND
     1    13    12   ar
     2    11     9    1
     3     9    10   ar
     4     9     5   ar
     5    12    10    1
     6    12    14   ar
     7    19    20    1
     8    19    18    2
     9     8     5    1
    10     8     7    2
    11    10     2   ar
    12     5     3   ar
    13    16    17    1
    14    16    15    1
    15    17    18    1
    16    20    21    2
    17    15     1    1
    18     7     6    1
    19    18    27    1
    20     2     3   ar
    21     2     1    1
    22     3     4    1
    23     6     4    2
    24    21    22    1
    25    21    23    1
    26    27    23    2
    27    22    24    2
    28    23    26    1
    29    24    25    1
    30    26    25    2
########## Name: lig_48
########## Vina_BE: -8.906
########## MW: 318.241
########## clogP: 1.356
########## nonHatoms: 27
########## Vina_LE: -0.33
########## Vina_LipE: -10.262
########## Close_contacts: 1
########## Hydrophob_contacts: 19
########## HBonds: 2
########## Salt_Bridges: 0
########## Pi-Pi_Parallel: 0
########## Pi-Pi_Perpendicular: 0
########## Pi-Cation: 0
########## Halogen_Bonds: 0
@<TRIPOS>MOLECULE
lig_48.pdbqt
 27 30 0 0 0
SMALL
GASTEIGER

@<TRIPOS>ATOM
      1  C        -28.1790   -8.7050  -20.2450 C.3     1  UNL1        0.1070
      2  C        -27.6090   -7.3120  -20.3260 C.ar    1  UNL1       -0.1800
      3  C        -28.1900   -6.0110  -20.0770 C.ar    1  UNL1       -0.0710
      4  C        -29.4850   -5.6690  -19.6670 C.2     1  UNL1        0.0260
      5  C        -27.2370   -5.0400  -20.3130 C.ar    1  UNL1       -0.0400
      6  C        -29.7920   -4.3030  -19.5020 C.2     1  UNL1       -0.0710
      7  C        -28.8130   -3.3120  -19.7450 C.2     1  UNL1       -0.0360
      8  C        -27.5150   -3.6770  -20.1570 C.2     1  UNL1       -0.0330
      9  N        -26.0460   -5.6180  -20.7100 N.ar    1  UNL1       -0.2150
     10  CA       -26.2490   -7.0010  -20.7310 C.ar    1  UNL1        0.0420
     11  H        -25.1750   -5.1760  -20.9600 H       1  UNL1        0.3100
     12  C        -25.1520   -7.9310  -21.1390 C.2     1  UNL1        0.8440
     13  O        -24.5400   -7.6300  -22.1550 O.co2   1  UNL1       -0.8220
     14  OXT      -24.9010   -8.9390  -20.4970 O.co2   1  UNL1       -0.8220
     15  C        -28.2010   -9.2420  -18.7920 C.3     1  UNL1       -0.0260
     16  C        -29.5800   -9.1350  -18.1000 C.3     1  UNL1        0.2890
     17  O        -30.3530  -10.3440  -18.2640 O.2     1  UNL1       -0.3500
     18  C        -31.6300  -10.3950  -18.7820 C.2     1  UNL1        0.1940
     19  C        -31.7920  -10.0620  -20.1410 C.2     1  UNL1       -0.0790
     20  C        -33.0580  -10.1250  -20.7660 C.2     1  UNL1        0.0210
     21  C        -34.1880  -10.5410  -20.0370 C.2     1  UNL1       -0.0830
     22  C        -34.0080  -10.8850  -18.6930 C.2     1  UNL1       -0.0070
     23  N        -34.9780  -11.3140  -17.8050 N.pl3   1  UNL1       -0.2530
     24  C        -32.7690  -10.8220  -18.0680 C.2     1  UNL1       -0.1320
     25  C        -34.2720  -11.4870  -16.6220 C.2     1  UNL1        0.0400
     26  C        -32.9450  -11.2120  -16.7520 C.2     1  UNL1        0.0740
     27  H        -35.9690  -11.3940  -17.9570 H       1  UNL1        0.2770
@<TRIPOS>BOND
     1    13    12   ar
     2    12    10    1
     3    12    14   ar
     4    11     9    1
     5    20    19    1
     6    20    21    2
     7    10     9   ar
     8    10     2   ar
     9     9     5   ar
    10     2     1    1
    11     2     3   ar
    12     5     8    1
    13     5     3   ar
    14     1    15    1
    15     8     7    2
    16    19    18    2
    17     3     4    1
    18    21    22    1
    19     7     6    1
    20     4     6    2
    21    15    16    1
    22    18    17    1
    23    18    24    1
    24    22    24    2
    25    22    23    1
    26    17    16    1
    27    24    26    1
    28    27    23    1
    29    23    25    1
    30    26    25    2
########## Name: lig_49
########## Vina_BE: -8.388
########## MW: 362.122
########## clogP: 1.276
########## nonHatoms: 26
########## Vina_LE: -0.323
########## Vina_LipE: -9.664
########## Close_contacts: 1
########## Hydrophob_contacts: 23
########## HBonds: 0
########## Salt_Bridges: 0
########## Pi-Pi_Parallel: 0
########## Pi-Pi_Perpendicular: 0
########## Pi-Cation: 0
########## Halogen_Bonds: 0
@<TRIPOS>MOLECULE
lig_49.pdbqt
 26 28 0 0 0
SMALL
GASTEIGER

@<TRIPOS>ATOM
      1  C        -28.4280   -7.2910  -20.3840 C.ar    1  UNL1       -0.1740
      2  CA       -28.0510   -5.9750  -20.8700 C.ar    1  UNL1        0.0510
      3  N        -26.6700   -5.8020  -20.7770 N.ar    1  UNL1       -0.2090
      4  C        -26.1480   -6.9790  -20.2830 C.ar    1  UNL1       -0.0400
      5  C        -24.7950   -7.2630  -20.0620 C.2     1  UNL1       -0.0230
      6  C        -24.4580   -8.5400  -19.5780 C.2     1  UNL1       -0.0280
      7  C        -25.4690   -9.4940  -19.3330 C.2     1  UNL1       -0.0470
      8  C        -26.8270   -9.1900  -19.5620 C.2     1  UNL1        0.0560
      9 CL        -28.0210  -10.4370  -19.2640 Cl      1  UNL1       -0.1430
     10  C        -27.1520   -7.9020  -20.0400 C.ar    1  UNL1       -0.0600
     11  H        -26.1930   -4.9630  -21.0700 H       1  UNL1        0.3140
     12  C        -28.9140   -4.8920  -21.4210 C.2     1  UNL1        0.8390
     13  O        -29.1800   -3.9760  -20.6540 O.co2   1  UNL1       -0.8100
     14  OXT      -29.2970   -4.9190  -22.5790 O.co2   1  UNL1       -0.8100
     15  C        -29.8570   -7.7760  -20.3280 C.3     1  UNL1        0.1160
     16  C        -30.2930   -8.4500  -21.6510 C.3     1  UNL1        0.0410
     17  C        -30.8220   -9.8850  -21.4580 C.3     1  UNL1        0.2120
     18  O        -32.2480   -9.8360  -21.2770 O.2     1  UNL1       -0.3330
     19  C        -32.8070  -10.2630  -20.1000 C.2     1  UNL1        0.1530
     20  C        -32.0100  -10.4750  -18.9640 C.2     1  UNL1       -0.0300
     21  C        -32.5940  -10.8990  -17.7540 C.2     1  UNL1       -0.0340
     22  C        -31.7180  -11.1180  -16.5290 C.3     1  UNL1        0.0910
     23  C        -33.9890  -11.1040  -17.6970 C.2     1  UNL1       -0.0280
     24  C        -34.7860  -10.8780  -18.8330 C.2     1  UNL1        0.0370
     25 CL        -34.7720  -11.6300  -16.2180 Cl      1  UNL1       -0.1260
     26  C        -34.1920  -10.4520  -20.0340 C.2     1  UNL1       -0.0160
@<TRIPOS>BOND
     1    14    12   ar
     2    16    17    1
     3    16    15    1
     4    17    18    1
     5    12     2    1
     6    12    13   ar
     7    18    19    1
     8    11     3    1
     9     2     3   ar
    10     2     1   ar
    11     3     4   ar
    12     1    15    1
    13     1    10   ar
    14     4     5    2
    15     4    10   ar
    16    19    26    2
    17    19    20    1
    18     5     6    1
    19    10     8    2
    20    26    24    1
    21     6     7    2
    22     8     7    1
    23     8     9    1
    24    20    21    2
    25    24    23    2
    26    21    23    1
    27    21    22    1
    28    23    25    1
########## Name: lig_50
########## Vina_BE: -8.295
########## MW: 374.133
########## clogP: 3.158
########## nonHatoms: 27
########## Vina_LE: -0.307
########## Vina_LipE: -11.453
########## Close_contacts: 1
########## Hydrophob_contacts: 16
########## HBonds: 1
########## Salt_Bridges: 0
########## Pi-Pi_Parallel: 0
########## Pi-Pi_Perpendicular: 0
########## Pi-Cation: 0
########## Halogen_Bonds: 1
@<TRIPOS>MOLECULE
lig_50.pdbqt
 27 29 0 0 0
SMALL
GASTEIGER

@<TRIPOS>ATOM
      1  C        -31.1690  -10.2790  -19.6050 C.ar    1  UNL1       -0.1640
      2  CA       -30.1970  -10.0790  -18.6120 C.ar    1  UNL1       -0.0500
      3  N        -30.7990  -10.3280  -17.3680 N.ar    1  UNL1       -0.2090
      4  C        -32.1220  -10.6460  -17.5700 C.ar    1  UNL1       -0.0360
      5  C        -33.0860  -10.9370  -16.5960 C.2     1  UNL1       -0.0240
      6  C        -34.3960  -11.2100  -17.0330 C.2     1  UNL1       -0.0220
      7  C        -34.7040  -11.1760  -18.4110 C.2     1  UNL1       -0.0480
      8  C        -33.7120  -10.8770  -19.3690 C.2     1  UNL1        0.0590
      9 CL        -34.1780  -10.8210  -21.0570 Cl      1  UNL1       -0.1270
     10  C        -32.4030  -10.6200  -18.9130 C.ar    1  UNL1       -0.0630
     11  H        -30.3040  -10.2480  -16.4920 H       1  UNL1        0.3140
     12  C        -28.7660   -9.6730  -18.7270 C.2     1  UNL1        0.9330
     13  OXT      -28.4560   -8.6500  -18.1330 O.co2   1  UNL1       -0.8180
     14  O        -27.9710  -10.3110  -19.3980 O.co2   1  UNL1       -0.8180
     15  C        -30.9020  -10.1480  -21.0880 C.3     1  UNL1        0.1110
     16  C        -31.1020   -8.6960  -21.5940 C.3     1  UNL1       -0.0170
     17  C        -29.7720   -7.9300  -21.7330 C.3     1  UNL1        0.2780
     18  O        -29.6760   -6.9760  -20.6570 O.2     1  UNL1       -0.3480
     19  C        -28.5930   -6.1370  -20.5700 C.2     1  UNL1        0.1430
     20  C        -28.7420   -4.8050  -20.1560 C.2     1  UNL1       -0.0060
     21  C        -27.6200   -3.9620  -20.0560 C.2     1  UNL1       -0.0430
     22  C        -27.8120   -2.5190  -19.6090 C.3     1  UNL1        0.0850
     23  C        -26.3390   -4.4710  -20.3660 C.2     1  UNL1       -0.0300
     24  C        -26.1860   -5.8170  -20.7660 C.2     1  UNL1       -0.0430
     25 CL        -24.9280   -3.4290  -20.2440 Cl      1  UNL1       -0.1380
     26  C        -27.3200   -6.6440  -20.8600 C.2     1  UNL1       -0.0060
     27  C        -24.8120   -6.3900  -21.0910 C.3     1  UNL1        0.0850
@<TRIPOS>BOND
     1    17    16    1
     2    17    18    1
     3    16    15    1
     4    27    24    1
     5    15     1    1
     6     9     8    1
     7    26    24    1
     8    26    19    2
     9    24    23    2
    10    18    19    1
    11    19    20    1
    12    23    25    1
    13    23    21    1
    14    20    21    2
    15    21    22    1
    16     1    10   ar
    17     1     2   ar
    18    14    12   ar
    19     8    10    1
    20     8     7    2
    21    10     4   ar
    22    12     2    1
    23    12    13   ar
    24     2     3   ar
    25     7     6    1
    26     4     3   ar
    27     4     5    1
    28     3    11    1
    29     6     5    2
########## Name: lig_52
########## Vina_BE: -8.812
########## MW: 362.122
########## clogP: 1.35
########## nonHatoms: 26
########## Vina_LE: -0.339
########## Vina_LipE: -10.162
########## Close_contacts: 2
########## Hydrophob_contacts: 23
########## HBonds: 2
########## Salt_Bridges: 0
########## Pi-Pi_Parallel: 0
########## Pi-Pi_Perpendicular: 0
########## Pi-Cation: 0
########## Halogen_Bonds: 1
@<TRIPOS>MOLECULE
lig_52.pdbqt
 26 28 0 0 0
SMALL
GASTEIGER

@<TRIPOS>ATOM
      1  C        -27.1550   -7.6460  -19.9010 C.ar    1  UNL1       -0.1740
      2  CA       -26.1230   -7.1240  -20.7780 C.ar    1  UNL1        0.0510
      3  N        -26.4700   -5.8480  -21.2310 N.ar    1  UNL1       -0.2090
      4  C        -27.6710   -5.5210  -20.6290 C.ar    1  UNL1       -0.0400
      5  C        -28.3800   -4.3180  -20.7330 C.2     1  UNL1       -0.0230
      6  C        -29.5740   -4.1910  -19.9950 C.2     1  UNL1       -0.1420
      7 CL        -30.4960   -2.7060  -20.0820 Cl      1  UNL1       -0.1430
      8  C        -30.0260   -5.2490  -19.1770 C.2     1  UNL1       -0.0570
      9  C        -29.2930   -6.4500  -19.0900 C.2     1  UNL1        0.1800
     10  C        -28.1110   -6.5610  -19.8350 C.ar    1  UNL1       -0.0600
     11  H        -25.8900   -5.2880  -21.8380 H       1  UNL1        0.3140
     12  C        -24.8320   -7.7580  -21.1760 C.2     1  UNL1        0.8390
     13  OXT      -24.5570   -7.9210  -22.3540 O.co2   1  UNL1       -0.8100
     14  O        -24.1010   -8.1140  -20.2640 O.co2   1  UNL1       -0.8100
     15  C        -27.0780   -8.9620  -19.1680 C.3     1  UNL1        0.1160
     16  C        -27.4690  -10.1580  -20.0670 C.3     1  UNL1        0.0410
     17  C        -28.9940  -10.3590  -20.1780 C.3     1  UNL1        0.2120
     18  O        -29.5980   -9.9700  -18.9300 O.2     1  UNL1       -0.3330
     19  C        -30.8800  -10.3180  -18.5670 C.2     1  UNL1        0.1530
     20  C        -31.8560  -10.3290  -19.5740 C.2     1  UNL1       -0.0300
     21  C        -33.1940  -10.6510  -19.2780 C.2     1  UNL1       -0.0340
     22  C        -34.2360  -10.6510  -20.3870 C.3     1  UNL1        0.0910
     23  C        -33.5490  -10.9620  -17.9500 C.2     1  UNL1       -0.0280
     24  C        -32.5770  -10.9420  -16.9350 C.2     1  UNL1        0.0370
     25 CL        -35.1990  -11.3710  -17.5200 Cl      1  UNL1       -0.1260
     26  C        -31.2440  -10.6190  -17.2400 C.2     1  UNL1       -0.0160
@<TRIPOS>BOND
     1    13    12   ar
     2    11     3    1
     3     3     2   ar
     4     3     4   ar
     5    12     2    1
     6    12    14   ar
     7     2     1   ar
     8     5     4    2
     9     5     6    1
    10     4    10   ar
    11    22    21    1
    12    17    16    1
    13    17    18    1
    14     7     6    1
    15    16    15    1
    16     6     8    2
    17     1    10   ar
    18     1    15    1
    19    10     9    2
    20    20    21    1
    21    20    19    2
    22    21    23    2
    23     8     9    1
    24    18    19    1
    25    19    26    1
    26    23    25    1
    27    23    24    1
    28    26    24    2
########## Name: lig_53
########## Vina_BE: -8.278
########## MW: 374.133
########## clogP: 3.049
########## nonHatoms: 27
########## Vina_LE: -0.307
########## Vina_LipE: -11.327
########## Close_contacts: 1
########## Hydrophob_contacts: 16
########## HBonds: 1
########## Salt_Bridges: 0
########## Pi-Pi_Parallel: 0
########## Pi-Pi_Perpendicular: 0
########## Pi-Cation: 0
########## Halogen_Bonds: 1
@<TRIPOS>MOLECULE
lig_53.pdbqt
 27 29 0 0 0
SMALL
GASTEIGER

@<TRIPOS>ATOM
      1  C        -25.4450   -6.4820  -20.4800 C.ar    1  UNL1       -0.1640
      2  CA       -24.4850   -5.5520  -20.0580 C.ar    1  UNL1       -0.0500
      3  N        -25.0960   -4.2850  -20.0370 N.ar    1  UNL1       -0.2090
      4  C        -26.4050   -4.4160  -20.4490 C.ar    1  UNL1       -0.0360
      5  C        -27.3790   -3.4210  -20.5940 C.2     1  UNL1       -0.0240
      6  C        -28.6540   -3.8170  -21.0440 C.2     1  UNL1       -0.1370
      7 CL        -29.9160   -2.6210  -21.2460 Cl      1  UNL1       -0.1270
      8  C        -28.9220   -5.1740  -21.3360 C.2     1  UNL1       -0.0580
      9  C        -27.9150   -6.1500  -21.1800 C.2     1  UNL1        0.1840
     10  C        -26.6560   -5.7330  -20.7280 C.ar    1  UNL1       -0.0630
     11  H        -24.6130   -3.4390  -19.7690 H       1  UNL1        0.3140
     12  C        -23.0550   -5.7670  -19.6870 C.2     1  UNL1        0.9330
     13  O        -22.7320   -6.0190  -18.5360 O.co2   1  UNL1       -0.8180
     14  OXT      -22.2470   -5.6910  -20.6010 O.co2   1  UNL1       -0.8180
     15  C        -25.1980   -7.9590  -20.6530 C.3     1  UNL1        0.1110
     16  C        -25.2550   -8.7210  -19.3050 C.3     1  UNL1       -0.0170
     17  C        -26.4860   -9.6440  -19.1980 C.3     1  UNL1        0.2780
     18  O        -27.5970   -8.8770  -18.6930 O.2     1  UNL1       -0.3480
     19  C        -28.8840   -9.2130  -19.0380 C.2     1  UNL1        0.1430
     20  C        -29.3550   -9.0260  -20.3480 C.2     1  UNL1       -0.0060
     21  C        -30.6710   -9.3900  -20.6870 C.2     1  UNL1       -0.0430
     22  C        -31.1590   -9.1690  -22.1120 C.3     1  UNL1        0.0850
     23  C        -31.5100   -9.9590  -19.7030 C.2     1  UNL1       -0.0300
     24  C        -31.0310  -10.1640  -18.3900 C.2     1  UNL1       -0.0430
     25 CL        -33.1550  -10.4210  -20.1160 Cl      1  UNL1       -0.1380
     26  C        -29.7120   -9.7920  -18.0710 C.2     1  UNL1       -0.0060
     27  C        -31.9170  -10.7860  -17.3190 C.3     1  UNL1        0.0850
@<TRIPOS>BOND
     1    22    21    1
     2     8     9    2
     3     8     6    1
     4     7     6    1
     5     9    10    1
     6     6     5    2
     7    10     1   ar
     8    10     4   ar
     9    21    20    1
    10    21    23    2
    11    15     1    1
    12    15    16    1
    13    14    12   ar
    14     5     4    1
    15     1     2   ar
    16     4     3   ar
    17    20    19    2
    18    25    23    1
    19     2     3   ar
    20     2    12    1
    21     3    11    1
    22    23    24    1
    23    12    13   ar
    24    16    17    1
    25    17    18    1
    26    19    18    1
    27    19    26    1
    28    24    26    2
    29    24    27    1
########## Name: lig_56
########## Vina_BE: -8.819
########## MW: 349.683
########## clogP: 0.609
########## nonHatoms: 26
########## Vina_LE: -0.339
########## Vina_LipE: -9.428
########## Close_contacts: 0
########## Hydrophob_contacts: 29
########## HBonds: 2
########## Salt_Bridges: 0
########## Pi-Pi_Parallel: 0
########## Pi-Pi_Perpendicular: 0
########## Pi-Cation: 0
########## Halogen_Bonds: 0
@<TRIPOS>MOLECULE
lig_56.pdbqt
 26 28 0 0 0
SMALL
GASTEIGER

@<TRIPOS>ATOM
      1  C        -27.2350   -7.2500  -19.8400 C.ar    1  UNL1       -0.1970
      2  C        -26.1130   -6.7450  -20.6200 C.ar    1  UNL1        0.0660
      3  N        -26.3860   -5.4230  -21.0410 N.ar    1  UNL1       -0.0970
      4  C        -25.5460   -4.5570  -21.8830 C.3     1  UNL1        0.1750
      5  C        -27.6240   -5.0830  -20.5090 C.ar    1  UNL1       -0.0460
      6  C        -28.3090   -3.8580  -20.6050 C.2     1  UNL1       -0.0230
      7  C        -29.5530   -3.7360  -19.9550 C.2     1  UNL1       -0.0410
      8  C        -30.0890   -4.8180  -19.2230 C.2     1  UNL1       -0.0640
      9  C        -29.3850   -6.0350  -19.1380 C.2     1  UNL1        0.0090
     10  C        -28.1530   -6.1390  -19.7960 C.ar    1  UNL1       -0.0690
     11  C        -24.8420   -7.4830  -20.9350 C.2     1  UNL1        0.8400
     12  O        -24.6440   -7.9150  -22.0590 O.co2   1  UNL1       -0.8120
     13  O        -24.0260   -7.6680  -20.0410 O.co2   1  UNL1       -0.8120
     14  C        -27.3210   -8.6200  -19.2120 C.3     1  UNL1        0.0980
     15  C        -27.2440   -9.7540  -20.2600 C.3     1  UNL1        0.0270
     16  C        -28.5350  -10.5920  -20.3500 C.3     1  UNL1        0.2560
     17  O        -29.6670   -9.7020  -20.2860 O.2     1  UNL1       -0.3370
     18  C        -30.8730  -10.0830  -19.7470 C.2     1  UNL1        0.1610
     19  C        -31.9800  -10.1480  -20.6010 C.2     1  UNL1       -0.0360
     20  C        -33.2420  -10.5310  -20.1150 C.2     1  UNL1       -0.0350
     21  C        -34.4310  -10.5730  -21.0640 C.3     1  UNL1        0.0850
     22  C        -33.3850  -10.8670  -18.7510 C.2     1  UNL1       -0.0350
     23  C        -32.2720  -10.8130  -17.8840 C.2     1  UNL1       -0.0350
     24 CL        -34.9560  -11.3590  -18.1310 Cl      1  UNL1       -0.1280
     25  C        -31.0190  -10.4180  -18.3890 C.2     1  UNL1       -0.0360
     26  C        -32.4060  -11.1740  -16.4110 C.3     1  UNL1        0.0850
@<TRIPOS>BOND
     1    12    11   ar
     2     4     3    1
     3    21    20    1
     4     3     2   ar
     5     3     5   ar
     6    11     2    1
     7    11    13   ar
     8     2     1   ar
     9     6     5    2
    10     6     7    1
    11    19    20    1
    12    19    18    2
    13     5    10   ar
    14    16    17    1
    15    16    15    1
    16    17    18    1
    17    15    14    1
    18    20    22    2
    19     7     8    2
    20     1    10   ar
    21     1    14    1
    22    10     9    2
    23    18    25    1
    24     8     9    1
    25    22    24    1
    26    22    23    1
    27    25    23    2
    28    23    26    1
########## Name: lig_58
########## Vina_BE: -8.394
########## MW: 385.136
########## clogP: 2.916
########## nonHatoms: 27
########## Vina_LE: -0.311
########## Vina_LipE: -11.31
########## Close_contacts: 0
########## Hydrophob_contacts: 15
########## HBonds: 1
########## Salt_Bridges: 0
########## Pi-Pi_Parallel: 0
########## Pi-Pi_Perpendicular: 0
########## Pi-Cation: 0
########## Halogen_Bonds: 1
@<TRIPOS>MOLECULE
lig_58.pdbqt
 27 29 0 0 0
SMALL
GASTEIGER

@<TRIPOS>ATOM
      1  C        -25.4710   -6.4880  -20.4910 C.ar    1  UNL1       -0.1800
      2  C        -24.5050   -5.4940  -20.0390 C.ar    1  UNL1        0.0600
      3  N        -25.1120   -4.2190  -20.0160 N.ar    1  UNL1       -0.0930
      4  C        -24.5040   -2.9420  -19.6100 C.3     1  UNL1        0.1810
      5  C        -26.4200   -4.3930  -20.4570 C.ar    1  UNL1       -0.0420
      6  C        -27.4180   -3.4180  -20.6280 C.2     1  UNL1        0.0010
      7  C        -28.6790   -3.8330  -21.1010 C.2     1  UNL1        0.0120
      8 CL        -29.9510   -2.6520  -21.3280 Cl      1  UNL1       -0.1500
      9  C        -28.9250   -5.1900  -21.3960 C.2     1  UNL1       -0.0410
     10  C        -27.9090   -6.1510  -21.2200 C.2     1  UNL1        0.0370
     11  C        -26.6630   -5.7190  -20.7460 C.ar    1  UNL1       -0.0650
     12  C        -23.0720   -5.7520  -19.6580 C.2     1  UNL1        0.8390
     13  O        -22.8060   -6.0060  -18.4930 O.co2   1  UNL1       -0.8140
     14  O        -22.1880   -5.6980  -20.5000 O.co2   1  UNL1       -0.8140
     15  C        -25.1850   -7.9580  -20.6620 C.3     1  UNL1        0.1100
     16  C        -25.2270   -8.7210  -19.3150 C.3     1  UNL1       -0.0230
     17  C        -26.4700   -9.6250  -19.1800 C.3     1  UNL1        0.2740
     18  O        -27.5880   -8.8200  -18.7560 O.2     1  UNL1       -0.3490
     19  C        -28.8730   -9.2130  -19.0420 C.2     1  UNL1        0.1360
     20  C        -29.7030   -9.7660  -18.0540 C.2     1  UNL1       -0.0030
     21  C        -31.0200  -10.1480  -18.3630 C.2     1  UNL1       -0.0420
     22  C        -31.8930  -10.7540  -17.2730 C.3     1  UNL1        0.0890
     23  C        -31.5080   -9.9590  -19.6750 C.2     1  UNL1       -0.0280
     24  C        -30.6830   -9.3860  -20.6670 C.2     1  UNL1       -0.0420
     25 CL        -33.1550  -10.4320  -20.0740 Cl      1  UNL1       -0.1370
     26  C        -29.3670   -9.0110  -20.3370 C.2     1  UNL1       -0.0030
     27  C        -31.1940   -9.1640  -22.0830 C.3     1  UNL1        0.0890
@<TRIPOS>BOND
     1    27    24    1
     2     9    10    2
     3     9     7    1
     4     8     7    1
     5    10    11    1
     6     7     6    2
     7    11     1   ar
     8    11     5   ar
     9    24    26    1
    10    24    23    2
    11    15     1    1
    12    15    16    1
    13     6     5    1
    14    14    12   ar
    15     1     2   ar
    16     5     3   ar
    17    26    19    2
    18    25    23    1
    19     2     3   ar
    20     2    12    1
    21     3     4    1
    22    23    21    1
    23    12    13   ar
    24    16    17    1
    25    17    18    1
    26    19    18    1
    27    19    20    1
    28    21    20    2
    29    21    22    1
########## Name: lig_60
########## Vina_BE: -8.781
########## MW: 355.73
########## clogP: 1.475
########## nonHatoms: 25
########## Vina_LE: -0.351
########## Vina_LipE: -10.256
########## Close_contacts: 0
########## Hydrophob_contacts: 25
########## HBonds: 0
########## Salt_Bridges: 0
########## Pi-Pi_Parallel: 0
########## Pi-Pi_Perpendicular: 0
########## Pi-Cation: 0
########## Halogen_Bonds: 0
@<TRIPOS>MOLECULE
lig_60.pdbqt
 25 27 0 0 0
SMALL
GASTEIGER

@<TRIPOS>ATOM
      1  C        -29.9450  -10.4220  -18.3760 C.3     1  UNL1        0.0980
      2  C        -31.3510  -10.4980  -18.9320 C.ar    1  UNL1       -0.1170
      3  C        -31.6670  -10.2830  -20.2810 C.ar    1  UNL1       -0.0730
      4  S        -33.4070  -10.4680  -20.6360 S.2     1  UNL1        0.0590
      5  C        -33.7090  -10.7860  -18.9270 C.ar    1  UNL1       -0.1180
      6  C        -34.9690  -11.0210  -18.3540 C.2     1  UNL1        0.0270
      7  C        -32.5570  -10.7760  -18.1640 C.ar    1  UNL1       -0.0690
      8  C        -35.0530  -11.2410  -16.9670 C.2     1  UNL1       -0.0420
      9  C        -33.8850  -11.2290  -16.1800 C.2     1  UNL1       -0.0390
     10  C        -32.6310  -10.9980  -16.7770 C.2     1  UNL1        0.0130
     11  C        -30.7400   -9.9270  -21.3920 C.2     1  UNL1        0.9090
     12  O        -30.9160   -8.9210  -22.0610 O.co2   1  UNL1       -0.8140
     13  O        -29.8220  -10.6970  -21.6270 O.co2   1  UNL1       -0.8140
     14  C        -29.4540   -8.9650  -18.1900 C.3     1  UNL1        0.0340
     15  C        -28.1200   -8.6740  -18.9080 C.3     1  UNL1        0.2510
     16  O        -28.4020   -7.9110  -20.0950 O.2     1  UNL1       -0.3350
     17  C        -28.2930   -6.5400  -20.1380 C.2     1  UNL1        0.1600
     18  C        -27.0470   -5.9950  -20.4640 C.2     1  UNL1       -0.0360
     19  C        -26.8630   -4.6020  -20.5170 C.2     1  UNL1       -0.0340
     20  C        -25.4880   -4.0390  -20.8510 C.3     1  UNL1        0.0860
     21  C        -27.9570   -3.7490  -20.2530 C.2     1  UNL1       -0.0340
     22  C        -29.2200   -4.2930  -19.9350 C.2     1  UNL1       -0.0340
     23 CL        -27.7440   -2.0050  -20.3240 Cl      1  UNL1       -0.1270
     24  C        -29.3820   -5.6890  -19.8770 C.2     1  UNL1       -0.0360
     25  C        -30.4130   -3.3890  -19.6500 C.3     1  UNL1        0.0860
@<TRIPOS>BOND
     1    12    11   ar
     2    13    11   ar
     3    11     3    1
     4    20    19    1
     5     4     3   ar
     6     4     5   ar
     7    19    18    1
     8    19    21    2
     9    18    17    2
    10    23    21    1
    11     3     2   ar
    12    21    22    1
    13    17    16    1
    14    17    24    1
    15    16    15    1
    16    22    24    2
    17    22    25    1
    18     2     1    1
    19     2     7   ar
    20     5     6    2
    21     5     7   ar
    22    15    14    1
    23     1    14    1
    24     6     8    1
    25     7    10    2
    26     8     9    2
    27    10     9    1
########## Name: lig_61
########## Vina_BE: -8.416
########## MW: 391.183
########## clogP: 2.165
########## nonHatoms: 26
########## Vina_LE: -0.324
########## Vina_LipE: -10.581
########## Close_contacts: 1
########## Hydrophob_contacts: 27
########## HBonds: 0
########## Salt_Bridges: 0
########## Pi-Pi_Parallel: 0
########## Pi-Pi_Perpendicular: 0
########## Pi-Cation: 0
########## Halogen_Bonds: 1
@<TRIPOS>MOLECULE
lig_61.pdbqt
 26 28 0 0 0
SMALL
GASTEIGER

@<TRIPOS>ATOM
      1  C        -31.4970  -10.4900  -19.0430 C.ar    1  UNL1       -0.1210
      2  C        -31.8000  -10.1700  -20.3760 C.ar    1  UNL1       -0.3280
      3  S        -33.5350  -10.1080  -20.7260 S.2     1  UNL1        0.2480
      4  C        -33.8640  -10.6010  -19.0650 C.ar    1  UNL1       -0.0670
      5  C        -35.1550  -10.8190  -18.5600 C.2     1  UNL1        0.0330
      6  C        -35.3030  -11.2460  -17.2320 C.2     1  UNL1       -0.0310
      7  C        -34.1610  -11.4630  -16.4410 C.2     1  UNL1       -0.0180
      8  C        -32.8700  -11.2420  -16.9590 C.2     1  UNL1        0.0490
      9 CL        -31.5380  -11.6090  -15.8780 Cl      1  UNL1       -0.1180
     10  C        -32.7250  -10.7860  -18.2940 C.ar    1  UNL1       -0.0270
     11  C        -30.8820   -9.8770  -21.5070 C.2     1  UNL1        0.9220
     12  O        -30.0870  -10.7530  -21.8000 O.co2   1  UNL1       -0.8090
     13  O        -30.9050   -8.8040  -22.0850 O.co2   1  UNL1       -0.8090
     14  C        -30.0710  -10.4650  -18.5350 C.3     1  UNL1        0.1020
     15  C        -29.5600   -9.0220  -18.2930 C.3     1  UNL1       -0.0120
     16  C        -28.1840   -8.7700  -18.9410 C.3     1  UNL1        0.2760
     17  O        -28.3710   -8.0430  -20.1730 O.2     1  UNL1       -0.3520
     18  C        -28.2770   -6.6730  -20.1920 C.2     1  UNL1        0.1360
     19  C        -29.3800   -5.8640  -19.8770 C.2     1  UNL1       -0.0060
     20  C        -29.2580   -4.4630  -19.8880 C.2     1  UNL1       -0.0400
     21  C        -30.4730   -3.6090  -19.5510 C.3     1  UNL1        0.0910
     22  C        -28.0130   -3.8750  -20.2070 C.2     1  UNL1       -0.0280
     23  C        -26.8990   -4.6890  -20.5050 C.2     1  UNL1       -0.0400
     24 CL        -27.8490   -2.1240  -20.2230 Cl      1  UNL1       -0.1390
     25  C        -27.0410   -6.0880  -20.4910 C.2     1  UNL1       -0.0060
     26  C        -25.5450   -4.0750  -20.8400 C.3     1  UNL1        0.0910
@<TRIPOS>BOND
     1    13    11   ar
     2    12    11   ar
     3    11     2    1
     4    26    23    1
     5     3     2   ar
     6     3     4   ar
     7    23    25    1
     8    23    22    2
     9    25    18    2
    10     2     1   ar
    11    24    22    1
    12    22    20    1
    13    18    17    1
    14    18    19    1
    15    17    16    1
    16    20    19    2
    17    20    21    1
    18     4     5    2
    19     4    10   ar
    20     1    14    1
    21     1    10   ar
    22    16    15    1
    23     5     6    1
    24    14    15    1
    25    10     8    2
    26     6     7    2
    27     8     7    1
    28     8     9    1
########## Name: lig_63
########## Vina_BE: -8.228
########## MW: 391.183
########## clogP: 3.783
########## nonHatoms: 26
########## Vina_LE: -0.316
########## Vina_LipE: -12.011
########## Close_contacts: 1
########## Hydrophob_contacts: 16
########## HBonds: 1
########## Salt_Bridges: 0
########## Pi-Pi_Parallel: 0
########## Pi-Pi_Perpendicular: 0
########## Pi-Cation: 0
########## Halogen_Bonds: 1
@<TRIPOS>MOLECULE
lig_63.pdbqt
 26 28 0 0 0
SMALL
GASTEIGER

@<TRIPOS>ATOM
      1  C        -25.2980   -6.2830  -20.4540 C.ar    1  UNL1       -0.1210
      2  C        -24.2850   -5.4360  -19.9870 C.ar    1  UNL1       -0.3280
      3  S        -24.8020   -3.7500  -19.7710 S.2     1  UNL1        0.2480
      4  C        -26.4080   -4.1870  -20.3660 C.ar    1  UNL1       -0.0670
      5  C        -27.4880   -3.3060  -20.5280 C.2     1  UNL1        0.0330
      6  C        -28.7030   -3.8070  -21.0300 C.2     1  UNL1       -0.1500
      7 CL        -30.0690   -2.7330  -21.2460 Cl      1  UNL1       -0.1180
      8  C        -28.8220   -5.1700  -21.3630 C.2     1  UNL1       -0.0270
      9  C        -27.7270   -6.0380  -21.1920 C.2     1  UNL1        0.1770
     10  C        -26.5190   -5.5290  -20.6840 C.ar    1  UNL1       -0.0270
     11  C        -22.8750   -5.7690  -19.6720 C.2     1  UNL1        0.9220
     12  O        -22.6300   -6.0510  -18.5120 O.co2   1  UNL1       -0.8090
     13  O        -22.0140   -5.7320  -20.5340 O.co2   1  UNL1       -0.8090
     14  C        -25.0970   -7.7630  -20.6810 C.3     1  UNL1        0.1020
     15  C        -25.1760   -8.5590  -19.3580 C.3     1  UNL1       -0.0120
     16  C        -26.4190   -9.4660  -19.2990 C.3     1  UNL1        0.2760
     17  O        -27.5320   -8.6940  -18.8110 O.2     1  UNL1       -0.3520
     18  C        -28.8100   -9.1010  -19.0900 C.2     1  UNL1        0.1360
     19  C        -29.3100   -8.9330  -20.3860 C.2     1  UNL1       -0.0060
     20  C        -30.6180   -9.3440  -20.7030 C.2     1  UNL1       -0.0400
     21  C        -31.1470   -9.1410  -22.1160 C.3     1  UNL1        0.0910
     22  C        -31.4190   -9.9360  -19.7010 C.2     1  UNL1       -0.0280
     23  C        -30.9140  -10.1110  -18.3950 C.2     1  UNL1       -0.0400
     24 CL        -33.0550  -10.4570  -20.0850 Cl      1  UNL1       -0.1390
     25  C        -29.6040   -9.6900  -18.0970 C.2     1  UNL1       -0.0060
     26  C        -31.7620  -10.7480  -17.3030 C.3     1  UNL1        0.0910
@<TRIPOS>BOND
     1    21    20    1
     2     8     9    2
     3     8     6    1
     4     7     6    1
     5     9    10    1
     6     6     5    2
     7    20    19    1
     8    20    22    2
     9    10     1   ar
    10    10     4   ar
    11    14     1    1
    12    14    15    1
    13    13    11   ar
    14     5     4    1
    15     1     2   ar
    16    19    18    2
    17     4     3   ar
    18    24    22    1
    19     2     3   ar
    20     2    11    1
    21    22    23    1
    22    11    12   ar
    23    15    16    1
    24    16    17    1
    25    18    17    1
    26    18    25    1
    27    23    25    2
    28    23    26    1
########## Name: lig_65
########## Vina_BE: -8.705
########## MW: 391.183
########## clogP: 2.165
########## nonHatoms: 26
########## Vina_LE: -0.335
########## Vina_LipE: -10.87
########## Close_contacts: 0
########## Hydrophob_contacts: 31
########## HBonds: 2
########## Salt_Bridges: 0
########## Pi-Pi_Parallel: 0
########## Pi-Pi_Perpendicular: 0
########## Pi-Cation: 0
########## Halogen_Bonds: 0
@<TRIPOS>MOLECULE
lig_65.pdbqt
 26 28 0 0 0
SMALL
GASTEIGER

@<TRIPOS>ATOM
      1  C        -27.1940   -7.2390  -19.7650 C.ar    1  UNL1       -0.1210
      2  C        -26.0360   -6.9130  -20.4830 C.ar    1  UNL1       -0.3280
      3  S        -26.0300   -5.2500  -21.1130 S.2     1  UNL1        0.2480
      4  C        -27.6460   -5.0040  -20.4350 C.ar    1  UNL1       -0.0670
      5  C        -28.4200   -3.8350  -20.5390 C.2     1  UNL1       -0.0920
      6 CL        -27.8190   -2.4210  -21.3820 Cl      1  UNL1       -0.1180
      7  C        -29.6990   -3.8090  -19.9570 C.2     1  UNL1       -0.0250
      8  C        -30.1910   -4.9450  -19.2860 C.2     1  UNL1       -0.0270
      9  C        -29.4030   -6.1090  -19.1920 C.2     1  UNL1        0.1770
     10  C        -28.1220   -6.1200  -19.7700 C.ar    1  UNL1       -0.0270
     11  C        -24.8590   -7.7680  -20.7750 C.2     1  UNL1        0.9220
     12  O        -24.7590   -8.1880  -21.9140 O.co2   1  UNL1       -0.8090
     13  O        -24.0550   -8.0440  -19.9010 O.co2   1  UNL1       -0.8090
     14  C        -27.4090   -8.5820  -19.1110 C.3     1  UNL1        0.1020
     15  C        -27.2300   -9.7410  -20.1170 C.3     1  UNL1       -0.0120
     16  C        -28.5450  -10.5000  -20.3710 C.3     1  UNL1        0.2760
     17  O        -29.6430   -9.5740  -20.2520 O.2     1  UNL1       -0.3520
     18  C        -30.8630  -10.0000  -19.7910 C.2     1  UNL1        0.1360
     19  C        -30.9880  -10.3440  -18.4400 C.2     1  UNL1       -0.0060
     20  C        -32.2240  -10.7760  -17.9260 C.2     1  UNL1       -0.0400
     21  C        -32.3330  -11.1590  -16.4560 C.3     1  UNL1        0.0910
     22  C        -33.3430  -10.8530  -18.7840 C.2     1  UNL1       -0.0280
     23  C        -33.2210  -10.4980  -20.1460 C.2     1  UNL1       -0.0400
     24 CL        -34.8950  -11.3880  -18.1540 Cl      1  UNL1       -0.1390
     25  C        -31.9750  -10.0720  -20.6410 C.2     1  UNL1       -0.0060
     26  C        -34.4170  -10.5690  -21.0860 C.3     1  UNL1        0.0910
@<TRIPOS>BOND
     1    12    11   ar
     2     6     5    1
     3     3     2   ar
     4     3     4   ar
     5    26    23    1
     6    11     2    1
     7    11    13   ar
     8    25    23    1
     9    25    18    2
    10     5     4    2
    11     5     7    1
    12     2     1   ar
    13     4    10   ar
    14    16    17    1
    15    16    15    1
    16    17    18    1
    17    23    22    2
    18    15    14    1
    19     7     8    2
    20    18    19    1
    21    10     1   ar
    22    10     9    2
    23     1    14    1
    24     8     9    1
    25    22    24    1
    26    22    20    1
    27    19    20    2
    28    20    21    1
########## Name: lig_67
########## Vina_BE: -8.738
########## MW: 339.665
########## clogP: 1.007
########## nonHatoms: 25
########## Vina_LE: -0.35
########## Vina_LipE: -9.745
########## Close_contacts: 0
########## Hydrophob_contacts: 25
########## HBonds: 0
########## Salt_Bridges: 0
########## Pi-Pi_Parallel: 0
########## Pi-Pi_Perpendicular: 0
########## Pi-Cation: 0
########## Halogen_Bonds: 0
@<TRIPOS>MOLECULE
lig_67.pdbqt
 25 27 0 0 0
SMALL
GASTEIGER

@<TRIPOS>ATOM
      1  C        -29.9090  -10.4450  -18.2200 C.3     1  UNL1        0.0980
      2  C        -31.3460  -10.4980  -18.6680 C.ar    1  UNL1       -0.2120
      3  C        -31.8050  -10.2840  -20.0320 C.ar    1  UNL1        0.0090
      4  O        -33.1770  -10.4190  -20.1280 O.2     1  UNL1        0.0590
      5  C        -33.6180  -10.7250  -18.8650 C.ar    1  UNL1       -0.1550
      6  C        -34.9390  -10.9630  -18.4620 C.2     1  UNL1        0.0130
      7  C        -32.5720  -10.7840  -17.9650 C.ar    1  UNL1       -0.0580
      8  C        -35.1770  -11.2690  -17.1070 C.2     1  UNL1       -0.0330
      9  C        -34.1060  -11.3310  -16.1870 C.2     1  UNL1       -0.0480
     10  C        -32.7840  -11.0880  -16.6150 C.2     1  UNL1        0.0180
     11  C        -31.0220   -9.9660  -21.2580 C.2     1  UNL1        0.9360
     12  O        -31.2620   -8.9530  -21.8980 O.co2   1  UNL1       -0.7970
     13  O        -30.1340  -10.7380  -21.5830 O.co2   1  UNL1       -0.7970
     14  C        -29.3760   -8.9920  -18.1350 C.3     1  UNL1       -0.0200
     15  C        -28.0500   -8.8010  -18.8940 C.3     1  UNL1        0.2790
     16  O        -28.3170   -8.1110  -20.1310 O.2     1  UNL1       -0.3530
     17  C        -28.1910   -6.7460  -20.2040 C.2     1  UNL1        0.1350
     18  C        -27.0030   -6.1520  -20.6580 C.2     1  UNL1       -0.0070
     19  C        -26.8950   -4.7530  -20.7420 C.2     1  UNL1       -0.0400
     20  C        -25.5920   -4.1360  -21.2310 C.3     1  UNL1        0.0930
     21  C        -27.9970   -3.9470  -20.3770 C.2     1  UNL1       -0.0270
     22  C        -29.1990   -4.5440  -19.9370 C.2     1  UNL1       -0.0400
     23 CL        -27.8750   -2.1960  -20.4780 Cl      1  UNL1       -0.1370
     24  C        -29.2860   -5.9460  -19.8580 C.2     1  UNL1       -0.0070
     25  C        -30.4010   -3.6940  -19.5490 C.3     1  UNL1        0.0930
@<TRIPOS>BOND
     1    12    11   ar
     2    13    11   ar
     3    11     3    1
     4    20    19    1
     5    19    18    1
     6    19    21    2
     7    18    17    2
     8    23    21    1
     9    21    22    1
    10    17    16    1
    11    17    24    1
    12    16    15    1
    13     4     3   ar
    14     4     5   ar
    15     3     2   ar
    16    22    24    2
    17    22    25    1
    18    15    14    1
    19     5     6    2
    20     5     7   ar
    21     2     1    1
    22     2     7   ar
    23     6     8    1
    24     1    14    1
    25     7    10    2
    26     8     9    2
    27    10     9    1
########## Name: ligand
########## Vina_BE: -11.873
########## MW: 373.704
########## clogP: 1.841
########## nonHatoms: 28
########## Vina_LE: -0.424
########## Vina_LipE: -13.714
########## Close_contacts: 0
########## Hydrophob_contacts: 27
########## HBonds: 1
########## Salt_Bridges: 0
########## Pi-Pi_Parallel: 0
########## Pi-Pi_Perpendicular: 0
########## Pi-Cation: 0
########## Halogen_Bonds: 0
@<TRIPOS>MOLECULE
ligand.pdbqt
 28 32 0 0 0
SMALL
GASTEIGER

@<TRIPOS>ATOM
      1  C        -32.2590  -11.0940  -17.1050 C.2     1  UNL1        0.0110
      2  C        -33.5690  -11.0510  -17.6260 C.2     1  UNL1        0.0120
      3  C        -33.8040  -10.5620  -18.9250 C.2     1  UNL1        0.0160
      4  C        -26.4020   -7.2420  -20.2410 C.2     1  UNL1        0.0190
      5  C        -25.1030   -7.5730  -19.8000 C.2     1  UNL1       -0.1150
      6  C        -24.9040   -8.8050  -19.1510 C.2     1  UNL1        0.0410
      7  C        -25.9760   -9.6890  -18.9650 C.2     1  UNL1       -0.0250
      8  C        -29.1740  -10.5700  -20.3190 C.3     1  UNL1        0.2580
      9  C        -29.9770   -8.2110  -19.7230 C.3     1  UNL1        0.3010
     10  C        -27.5050   -8.1060  -20.0520 C.2     1  UNL1        0.0750
     11  C        -27.2640   -9.3570  -19.4170 C.2     1  UNL1        0.0310
     12  C        -30.3990   -9.6340  -20.1680 C.3     1  UNL1       -0.0410
     13  C        -32.7320   -9.5640  -21.0850 C.3     1  UNL1        0.0590
     14  N        -28.7970   -7.7100  -20.4560 N.pl3   1  UNL1       -0.6510
     15  O        -28.2290  -10.3350  -19.2620 O.2     1  UNL1       -0.3510
     16  C        -32.7100  -10.1250  -19.6850 C.2     1  UNL1       -0.0810
     17  C        -31.4180  -10.1720  -19.1780 C.2     1  UNL1       -0.0680
     18  C        -31.1710  -10.6500  -17.8810 C.2     1  UNL1        0.0660
     19 CL        -34.9120  -11.6040  -16.6510 Cl      1  UNL1       -0.1220
     20  C        -31.2350   -9.6000  -21.4870 C.3     1  UNL1        0.0350
     21  C        -23.9460   -6.6190  -20.0170 C.2     1  UNL1        0.9090
     22  O        -23.7300   -6.2300  -21.1540 O.co2   1  UNL1       -0.8300
     23  O        -23.2920   -6.2800  -19.0440 O.co2   1  UNL1       -0.8300
     24  C        -29.0480   -6.5640  -21.3550 C.3     1  UNL1        0.3130
     25  C        -28.8320   -5.1970  -20.6740 C.3     1  UNL1       -0.0270
     26  C        -29.4290   -3.9320  -21.3770 C.3     1  UNL1        0.0090
     27  C        -29.5250   -3.3230  -19.9420 C.3     1  UNL1       -0.0210
     28  C        -29.7460   -4.7940  -19.4660 C.3     1  UNL1        0.0090
@<TRIPOS>BOND
     1    20    13    1
     2    20    12    1
     3    26    25    1
     4    26    27    1
     5    24    25    1
     6    24    14    1
     7    22    21   ar
     8    13    16    1
     9    25    28    1
    10    14    10    1
    11    14     9    1
    12     8    12    1
    13     8    15    1
    14     4    10    2
    15     4     5    1
    16    12     9    1
    17    12    17    1
    18    10    11    1
    19    21     5    1
    20    21    23   ar
    21    27    28    1
    22     5     6    2
    23    16    17    2
    24    16     3    1
    25    11    15    1
    26    11     7    2
    27    17    18    1
    28     6     7    1
    29     3     2    2
    30    18     1    2
    31     2     1    1
    32     2    19    1
