########## Name: lig_27
########## Vina_BE: -6.315
########## MW: 279.205
########## clogP: -0.331
########## nonHatoms: 23
########## Vina_LE: -0.275
########## Vina_LipE: -5.984
########## Close_contacts: 0
########## Hydrophob_contacts: 20
########## HBonds: 0
########## Salt_Bridges: 0
########## Pi-Pi_Parallel: 0
########## Pi-Pi_Perpendicular: 0
########## Pi-Cation: 0
########## Halogen_Bonds: 0
@<TRIPOS>MOLECULE
lig_27.pdbqt
 23 25 0 0 0
SMALL
GASTEIGER

@<TRIPOS>ATOM
      1  CA       -24.8320   -7.8920  -22.7570 C.ar    1  UNL1        0.0410
      2  N        -24.8650   -8.5670  -23.9750 N.ar    1  UNL1       -0.2150
      3  C        -26.2100   -8.7120  -24.2480 C.ar    1  UNL1       -0.0400
      4  C        -26.8050   -9.3360  -25.3510 C.2     1  UNL1       -0.0330
      5  C        -28.2140   -9.3650  -25.4050 C.2     1  UNL1       -0.0360
      6  C        -28.9830   -8.7840  -24.3700 C.2     1  UNL1       -0.0710
      7  C        -28.3550   -8.1630  -23.2700 C.2     1  UNL1        0.0250
      8  C        -26.9540   -8.1370  -23.2330 C.ar    1  UNL1       -0.0710
      9  C        -26.0960   -7.6110  -22.2840 C.ar    1  UNL1       -0.1800
     10  H        -24.0540   -8.8750  -24.4900 H       1  UNL1        0.3100
     11  C        -23.5310   -7.5570  -22.0970 C.2     1  UNL1        0.8430
     12  O        -22.9800   -8.4690  -21.4950 O.co2   1  UNL1       -0.8210
     13  OXT      -23.0620   -6.4280  -22.1510 O.co2   1  UNL1       -0.8210
     14  C        -26.4700   -6.8910  -21.0030 C.3     1  UNL1        0.1040
     15  C        -26.4930   -7.8630  -19.7980 C.3     1  UNL1       -0.0260
     16  C        -27.6640   -7.6090  -18.8220 C.3     1  UNL1        0.2820
     17  O        -28.6720   -8.6380  -18.9520 O.2     1  UNL1       -0.3520
     18  C        -29.7470   -8.5480  -19.8080 C.2     1  UNL1        0.1340
     19  C        -30.4640   -9.6810  -20.2330 C.2     1  UNL1       -0.0120
     20  C        -31.5440   -9.5370  -21.1210 C.2     1  UNL1        0.0100
     21  C        -31.8970   -8.2630  -21.5970 C.2     1  UNL1       -0.0710
     22  C        -31.1720   -7.1330  -21.1870 C.2     1  UNL1        0.0100
     23  C        -30.0950   -7.2800  -20.2960 C.2     1  UNL1       -0.0120
@<TRIPOS>BOND
     1     5     4    1
     2     5     6    2
     3     4     3    2
     4    10     2    1
     5     6     7    1
     6     3     2   ar
     7     3     8   ar
     8     2     1   ar
     9     7     8    2
    10     8     9   ar
    11     1     9   ar
    12     1    11    1
    13     9    14    1
    14    13    11   ar
    15    11    12   ar
    16    21    22    2
    17    21    20    1
    18    22    23    1
    19    20    19    2
    20    14    15    1
    21    23    18    2
    22    19    18    1
    23    18    17    1
    24    15    16    1
    25    17    16    1
########## Name: lig_28
########## Vina_BE: -6.309
########## MW: 291.216
########## clogP: -0.176
########## nonHatoms: 24
########## Vina_LE: -0.263
########## Vina_LipE: -6.133
########## Close_contacts: 0
########## Hydrophob_contacts: 16
########## HBonds: 1
########## Salt_Bridges: 0
########## Pi-Pi_Parallel: 0
########## Pi-Pi_Perpendicular: 0
########## Pi-Cation: 0
########## Halogen_Bonds: 0
@<TRIPOS>MOLECULE
lig_28.pdbqt
 24 26 0 0 0
SMALL
GASTEIGER

@<TRIPOS>ATOM
      1  C        -25.0650   -7.9270  -23.6990 C.ar    1  UNL1       -0.1860
      2  CA       -24.4410   -8.6210  -24.8120 C.ar    1  UNL1        0.0480
      3  N        -25.4050   -9.3180  -25.5490 N.ar    1  UNL1       -0.2140
      4  C        -26.6230   -9.0970  -24.9320 C.ar    1  UNL1       -0.0430
      5  C        -27.8750   -9.5950  -25.3080 C.2     1  UNL1       -0.0330
      6  C        -28.9880   -9.2440  -24.5170 C.2     1  UNL1       -0.0390
      7  C        -28.8260   -8.4210  -23.3790 C.2     1  UNL1       -0.0730
      8  C        -27.5520   -7.9370  -23.0220 C.2     1  UNL1        0.0200
      9  C        -26.4600   -8.2860  -23.8270 C.ar    1  UNL1       -0.0730
     10  H        -25.1950   -9.8730  -26.3640 H       1  UNL1        0.3100
     11  C        -23.0040   -8.6540  -25.2120 C.2     1  UNL1        0.8380
     12  OXT      -22.1370   -8.9700  -24.4130 O.co2   1  UNL1       -0.8150
     13  O        -22.7580   -8.3470  -26.3710 O.co2   1  UNL1       -0.8150
     14  C        -24.3450   -7.0210  -22.7320 C.3     1  UNL1        0.0980
     15  C        -23.7260   -7.7900  -21.5390 C.3     1  UNL1        0.0250
     16  C        -24.2210   -7.3250  -20.1500 C.3     1  UNL1        0.2440
     17  O        -25.3300   -6.4120  -20.2860 O.2     1  UNL1       -0.3680
     18  C        -26.6030   -6.7810  -19.9210 C.2     1  UNL1        0.1200
     19  C        -26.7970   -8.0520  -19.3600 C.2     1  UNL1        0.0070
     20  C        -28.0810   -8.4650  -18.9680 C.2     1  UNL1       -0.0080
     21  C        -29.1710   -7.5940  -19.1240 C.2     1  UNL1       -0.0310
     22  C        -28.9750   -6.3120  -19.6640 C.2     1  UNL1       -0.0040
     23  C        -27.6910   -5.8920  -20.0610 C.2     1  UNL1       -0.0960
     24  C        -27.5040   -4.4980  -20.6460 C.3     1  UNL1        0.0900
@<TRIPOS>BOND
     1    13    11   ar
     2    10     3    1
     3     3     4   ar
     4     3     2   ar
     5     5     4    2
     6     5     6    1
     7    11     2    1
     8    11    12   ar
     9     4     9   ar
    10     2     1   ar
    11     6     7    2
    12     9     1   ar
    13     9     8    2
    14     1    14    1
    15     7     8    1
    16    14    15    1
    17    15    16    1
    18    24    23    1
    19    17    16    1
    20    17    18    1
    21    23    18    2
    22    23    22    1
    23    18    19    1
    24    22    21    2
    25    19    20    2
    26    21    20    1
########## Name: lig_30
########## Vina_BE: -7.041
########## MW: 291.216
########## clogP: -0.176
########## nonHatoms: 24
########## Vina_LE: -0.293
########## Vina_LipE: -6.865
########## Close_contacts: 0
########## Hydrophob_contacts: 25
########## HBonds: 2
########## Salt_Bridges: 0
########## Pi-Pi_Parallel: 0
########## Pi-Pi_Perpendicular: 0
########## Pi-Cation: 0
########## Halogen_Bonds: 0
@<TRIPOS>MOLECULE
lig_30.pdbqt
 24 26 0 0 0
SMALL
GASTEIGER

@<TRIPOS>ATOM
      1  C        -25.8550   -7.5780  -21.8270 C.ar    1  UNL1       -0.1930
      2  CA       -24.5230   -7.8980  -22.1280 C.ar    1  UNL1       -0.0370
      3  N        -24.5060   -8.5080  -23.3950 N.ar    1  UNL1       -0.2140
      4  C        -25.7950   -8.5670  -23.8760 C.ar    1  UNL1       -0.0420
      5  C        -26.2470   -9.0840  -25.0960 C.2     1  UNL1       -0.0300
      6  C        -27.6310   -9.0220  -25.3600 C.2     1  UNL1       -0.0380
      7  C        -28.5150   -8.4570  -24.4110 C.2     1  UNL1       -0.0670
      8  C        -28.0250   -7.9460  -23.1910 C.2     1  UNL1        0.0130
      9  C        -26.6450   -8.0170  -22.9550 C.ar    1  UNL1       -0.0730
     10  H        -23.6610   -8.8320  -23.8410 H       1  UNL1        0.3100
     11  C        -23.2860   -7.6690  -21.3250 C.2     1  UNL1        0.9270
     12  OXT      -23.2780   -7.8380  -20.1160 O.co2   1  UNL1       -0.8140
     13  O        -22.3000   -7.3050  -21.9520 O.co2   1  UNL1       -0.8140
     14  C        -26.3180   -6.8790  -20.5720 C.3     1  UNL1        0.0990
     15  C        -26.6580   -7.8630  -19.4300 C.3     1  UNL1        0.0220
     16  C        -27.9640   -7.4860  -18.6890 C.3     1  UNL1        0.2540
     17  O        -28.9270   -6.9590  -19.6260 O.2     1  UNL1       -0.3400
     18  C        -29.9400   -7.7040  -20.1940 C.2     1  UNL1        0.1530
     19  C        -30.0040   -9.0660  -19.8710 C.2     1  UNL1       -0.0370
     20  C        -31.0180   -9.8780  -20.4050 C.2     1  UNL1        0.0140
     21  C        -31.9770   -9.3210  -21.2660 C.2     1  UNL1       -0.0660
     22  C        -31.9260   -7.9560  -21.5970 C.2     1  UNL1       -0.0450
     23  C        -32.9620   -7.3480  -22.5260 C.3     1  UNL1        0.0690
     24  C        -30.9090   -7.1500  -21.0560 C.2     1  UNL1       -0.0500
@<TRIPOS>BOND
     1     6     5    1
     2     6     7    2
     3     5     4    2
     4     7     8    1
     5     4     3   ar
     6     4     9   ar
     7    10     3    1
     8     3     2   ar
     9     8     9    2
    10     9     1   ar
    11    23    22    1
    12     2     1   ar
    13     2    11    1
    14    13    11   ar
    15     1    14    1
    16    22    21    2
    17    22    24    1
    18    11    12   ar
    19    21    20    1
    20    24    18    2
    21    14    15    1
    22    20    19    2
    23    18    19    1
    24    18    17    1
    25    17    16    1
    26    15    16    1
########## Name: lig_31
########## Vina_BE: -7.302
########## MW: 348.211
########## clogP: 2.342
########## nonHatoms: 27
########## Vina_LE: -0.27
########## Vina_LipE: -9.644
########## Close_contacts: 1
########## Hydrophob_contacts: 17
########## HBonds: 2
########## Salt_Bridges: 0
########## Pi-Pi_Parallel: 0
########## Pi-Pi_Perpendicular: 0
########## Pi-Cation: 0
########## Halogen_Bonds: 0
@<TRIPOS>MOLECULE
lig_31.pdbqt
 27 29 0 0 0
SMALL
GASTEIGER

@<TRIPOS>ATOM
      1  C        -25.6260   -6.9140  -21.3560 C.3     1  UNL1        0.1040
      2  C        -25.5990   -7.7610  -22.6080 C.ar    1  UNL1       -0.1820
      3  C        -26.7330   -8.1790  -23.4020 C.ar    1  UNL1       -0.0710
      4  C        -28.1050   -7.9590  -23.2210 C.2     1  UNL1        0.0250
      5  C        -26.2650   -8.8890  -24.4740 C.ar    1  UNL1       -0.0390
      6  C        -28.9930   -8.4910  -24.1790 C.2     1  UNL1       -0.0680
      7  C        -28.5020   -9.2220  -25.2860 C.2     1  UNL1       -0.0330
      8  C        -27.1170   -9.4290  -25.4450 C.2     1  UNL1       -0.0310
      9  N        -24.8920   -8.9480  -24.4080 N.ar    1  UNL1       -0.2140
     10  CA       -24.4590   -8.2500  -23.2650 C.ar    1  UNL1       -0.0480
     11  H        -24.2570   -9.3920  -25.0560 H       1  UNL1        0.3110
     12  C        -23.0140   -8.1220  -22.9160 C.2     1  UNL1        0.9330
     13  OXT      -22.2510   -7.9230  -23.8480 O.co2   1  UNL1       -0.8230
     14  O        -22.6280   -8.2500  -21.7660 O.co2   1  UNL1       -0.8230
     15  C        -26.7050   -7.3840  -20.3540 C.3     1  UNL1       -0.0240
     16  C        -27.6880   -6.2630  -19.9390 C.3     1  UNL1        0.2880
     17  O        -28.8040   -6.8380  -19.2220 O.2     1  UNL1       -0.3460
     18  C        -29.6910   -7.6980  -19.8320 C.2     1  UNL1        0.1330
     19  C        -29.7120   -9.0680  -19.5270 C.2     1  UNL1        0.0660
     20  C        -30.6480   -9.9100  -20.1480 C.2     1  UNL1        0.0390
     21  C        -31.5610   -9.3830  -21.0770 C.2     1  UNL1       -0.0020
     22  C        -31.5470   -8.0080  -21.3970 C.2     1  UNL1       -0.1540
     23  C        -30.5930   -7.1770  -20.7710 C.2     1  UNL1        0.0190
     24  C        -32.5420   -7.4390  -22.4150 C.3     1  UNL1        0.6870
     25  F        -33.1440   -6.3240  -21.9490 F       1  UNL1       -0.2490
     26  F        -31.9480   -7.0970  -23.5810 F       1  UNL1       -0.2490
     27  F        -33.5270   -8.3080  -22.7320 F       1  UNL1       -0.2490
@<TRIPOS>BOND
     1     8     7    2
     2     8     5    1
     3     7     6    1
     4    11     9    1
     5     5     9   ar
     6     5     3   ar
     7     9    10   ar
     8     6     4    2
     9    13    12   ar
    10    26    24    1
    11     3     4    1
    12     3     2   ar
    13    10    12    1
    14    10     2   ar
    15    12    14   ar
    16    27    24    1
    17     2     1    1
    18    24    25    1
    19    24    22    1
    20    22    21    2
    21    22    23    1
    22     1    15    1
    23    21    20    1
    24    23    18    2
    25    15    16    1
    26    20    19    2
    27    16    17    1
    28    18    19    1
    29    18    17    1
########## Name: lig_32
########## Vina_BE: -6.615
########## MW: 291.216
########## clogP: -0.176
########## nonHatoms: 24
########## Vina_LE: -0.276
########## Vina_LipE: -6.439
########## Close_contacts: 0
########## Hydrophob_contacts: 22
########## HBonds: 0
########## Salt_Bridges: 0
########## Pi-Pi_Parallel: 0
########## Pi-Pi_Perpendicular: 0
########## Pi-Cation: 0
########## Halogen_Bonds: 0
@<TRIPOS>MOLECULE
lig_32.pdbqt
 24 26 0 0 0
SMALL
GASTEIGER

@<TRIPOS>ATOM
      1  C        -26.1100   -7.7200  -22.3080 C.ar    1  UNL1       -0.1930
      2  CA       -24.8300   -7.9500  -22.8310 C.ar    1  UNL1       -0.0370
      3  N        -24.9840   -8.5920  -24.0740 N.ar    1  UNL1       -0.2140
      4  C        -26.3290   -8.7380  -24.3350 C.ar    1  UNL1       -0.0430
      5  C        -26.9460   -9.2850  -25.4670 C.2     1  UNL1       -0.0300
      6  C        -28.3550   -9.2960  -25.5010 C.2     1  UNL1       -0.0380
      7  C        -29.1010   -8.7680  -24.4230 C.2     1  UNL1       -0.0670
      8  C        -28.4470   -8.2250  -23.2980 C.2     1  UNL1        0.0140
      9  C        -27.0470   -8.2270  -23.2870 C.ar    1  UNL1       -0.0720
     10  H        -24.2070   -8.8620  -24.6570 H       1  UNL1        0.3100
     11  C        -23.4940   -7.6000  -22.2650 C.2     1  UNL1        0.9270
     12  OXT      -22.8540   -8.4090  -21.6110 O.co2   1  UNL1       -0.8150
     13  O        -23.1050   -6.4600  -22.4770 O.co2   1  UNL1       -0.8150
     14  C        -26.4050   -7.0140  -21.0070 C.3     1  UNL1        0.0980
     15  C        -26.4420   -7.9870  -19.8060 C.3     1  UNL1        0.0230
     16  C        -27.5860   -7.6860  -18.8160 C.3     1  UNL1        0.2520
     17  O        -28.6170   -8.6770  -18.9840 O.2     1  UNL1       -0.3390
     18  C        -29.6710   -8.4670  -19.8400 C.2     1  UNL1        0.1480
     19  C        -30.4500   -9.5300  -20.3290 C.2     1  UNL1       -0.0390
     20  C        -31.5290   -9.2740  -21.1900 C.2     1  UNL1        0.0230
     21  C        -31.8380   -7.9540  -21.5680 C.2     1  UNL1       -0.1370
     22  C        -33.0050   -7.6810  -22.5020 C.3     1  UNL1        0.0600
     23  C        -31.0610   -6.8920  -21.0700 C.2     1  UNL1        0.0230
     24  C        -29.9850   -7.1500  -20.2050 C.2     1  UNL1       -0.0390
@<TRIPOS>BOND
     1     6     5    1
     2     6     7    2
     3     5     4    2
     4    10     3    1
     5     7     8    1
     6     4     3   ar
     7     4     9   ar
     8     3     2   ar
     9     8     9    2
    10     9     1   ar
    11     2     1   ar
    12     2    11    1
    13    22    21    1
    14    13    11   ar
    15     1    14    1
    16    11    12   ar
    17    21    20    2
    18    21    23    1
    19    20    19    1
    20    23    24    2
    21    14    15    1
    22    19    18    2
    23    24    18    1
    24    18    17    1
    25    15    16    1
    26    17    16    1
########## Name: lig_33
########## Vina_BE: -6.448
########## MW: 314.658
########## clogP: 0.432
########## nonHatoms: 24
########## Vina_LE: -0.269
########## Vina_LipE: -6.88
########## Close_contacts: 0
########## Hydrophob_contacts: 17
########## HBonds: 0
########## Salt_Bridges: 0
########## Pi-Pi_Parallel: 0
########## Pi-Pi_Perpendicular: 0
########## Pi-Cation: 0
########## Halogen_Bonds: 0
@<TRIPOS>MOLECULE
lig_33.pdbqt
 24 26 0 0 0
SMALL
GASTEIGER

@<TRIPOS>ATOM
      1  CA       -24.8400   -7.8890  -22.8570 C.ar    1  UNL1       -0.0480
      2  N        -24.9930   -8.5490  -24.0890 N.ar    1  UNL1       -0.2140
      3  C        -26.3380   -8.7280  -24.3340 C.ar    1  UNL1       -0.0400
      4  C        -26.9510   -9.3450  -25.4310 C.2     1  UNL1       -0.0310
      5  C        -28.3590   -9.4070  -25.4420 C.2     1  UNL1       -0.0350
      6  C        -29.1090   -8.8600  -24.3750 C.2     1  UNL1       -0.0700
      7  C        -28.4580   -8.2450  -23.2830 C.2     1  UNL1        0.0250
      8  C        -27.0570   -8.1960  -23.2970 C.ar    1  UNL1       -0.0710
      9  C        -26.1220   -7.6470  -22.3430 C.ar    1  UNL1       -0.1810
     10  H        -24.2150   -8.8390  -24.6630 H       1  UNL1        0.3100
     11  C        -23.5080   -7.5520  -22.2710 C.2     1  UNL1        0.9320
     12  O        -22.9000   -8.4780  -21.7530 O.co2   1  UNL1       -0.8210
     13  OXT      -23.0700   -6.4110  -22.3020 O.co2   1  UNL1       -0.8210
     14  C        -26.3890   -6.9570  -21.0310 C.3     1  UNL1        0.1060
     15  C        -26.3960   -7.9560  -19.8500 C.3     1  UNL1       -0.0250
     16  C        -27.5100   -7.6940  -18.8110 C.3     1  UNL1        0.2840
     17  O        -28.5860   -8.6500  -18.9590 O.2     1  UNL1       -0.3480
     18  C        -29.6690   -8.4680  -19.7900 C.2     1  UNL1        0.1390
     19  C        -29.9660   -7.1600  -20.2000 C.2     1  UNL1        0.0010
     20  C        -31.0410   -6.9140  -21.0700 C.2     1  UNL1        0.0380
     21  C        -31.8180   -7.9850  -21.5390 C.2     1  UNL1       -0.0310
     22 CL        -33.1570   -7.6820  -22.6260 Cl      1  UNL1       -0.1370
     23  C        -31.5220   -9.2980  -21.1400 C.2     1  UNL1        0.0380
     24  C        -30.4420   -9.5420  -20.2720 C.2     1  UNL1        0.0010
@<TRIPOS>BOND
     1     5     4    1
     2     5     6    2
     3     4     3    2
     4    10     2    1
     5     6     7    1
     6     3     2   ar
     7     3     8   ar
     8     2     1   ar
     9     8     7    2
    10     8     9   ar
    11     1     9   ar
    12     1    11    1
    13    22    21    1
    14     9    14    1
    15    13    11   ar
    16    11    12   ar
    17    21    23    2
    18    21    20    1
    19    23    24    1
    20    20    19    2
    21    14    15    1
    22    24    18    2
    23    19    18    1
    24    15    16    1
    25    18    17    1
    26    17    16    1
########## Name: lig_34
########## Vina_BE: -6.86
########## MW: 348.211
########## clogP: 2.342
########## nonHatoms: 27
########## Vina_LE: -0.254
########## Vina_LipE: -9.202
########## Close_contacts: 0
########## Hydrophob_contacts: 19
########## HBonds: 0
########## Salt_Bridges: 0
########## Pi-Pi_Parallel: 0
########## Pi-Pi_Perpendicular: 0
########## Pi-Cation: 0
########## Halogen_Bonds: 0
@<TRIPOS>MOLECULE
lig_34.pdbqt
 27 29 0 0 0
SMALL
GASTEIGER

@<TRIPOS>ATOM
      1  C        -26.1940   -7.0890  -21.1750 C.3     1  UNL1        0.1040
      2  C        -26.0030   -7.8120  -22.4880 C.ar    1  UNL1       -0.1820
      3  C        -27.0310   -8.2420  -23.4080 C.ar    1  UNL1       -0.0710
      4  C        -28.4270   -8.1420  -23.3280 C.2     1  UNL1        0.0250
      5  C        -26.4230   -8.8080  -24.4940 C.ar    1  UNL1       -0.0390
      6  C        -29.1900   -8.6440  -24.4020 C.2     1  UNL1       -0.0680
      7  C        -28.5550   -9.2250  -25.5240 C.2     1  UNL1       -0.0330
      8  C        -27.1490   -9.3130  -25.5800 C.2     1  UNL1       -0.0310
      9  N        -25.0580   -8.7670  -24.3180 N.ar    1  UNL1       -0.2140
     10  CA       -24.7770   -8.1460  -23.0860 C.ar    1  UNL1       -0.0480
     11  H        -24.3410   -9.0950  -24.9470 H       1  UNL1        0.3110
     12  C        -23.3800   -7.9350  -22.6040 C.2     1  UNL1        0.9330
     13  OXT      -22.6590   -7.2610  -23.3230 O.co2   1  UNL1       -0.8230
     14  O        -22.9850   -8.4470  -21.5690 O.co2   1  UNL1       -0.8230
     15  C        -26.0920   -8.0370  -19.9580 C.3     1  UNL1       -0.0240
     16  C        -27.1020   -7.7030  -18.8310 C.3     1  UNL1        0.2880
     17  O        -28.2370   -8.5950  -18.9170 O.2     1  UNL1       -0.3460
     18  C        -29.3340   -8.3130  -19.7030 C.2     1  UNL1        0.1330
     19  C        -29.7010   -6.9960  -20.0280 C.2     1  UNL1        0.0660
     20  C        -30.8070   -6.7560  -20.8620 C.2     1  UNL1        0.0390
     21  C        -31.5670   -7.8290  -21.3760 C.2     1  UNL1       -0.1370
     22  C        -31.1970   -9.1460  -21.0310 C.2     1  UNL1       -0.0190
     23  C        -30.0920   -9.3830  -20.1970 C.2     1  UNL1        0.0190
     24  C        -32.7650   -7.5900  -22.3040 C.3     1  UNL1        0.6870
     25  F        -33.6710   -8.5900  -22.2230 F       1  UNL1       -0.2490
     26  F        -33.4370   -6.4470  -22.0390 F       1  UNL1       -0.2490
     27  F        -32.3830   -7.5240  -23.5980 F       1  UNL1       -0.2490
@<TRIPOS>BOND
     1     8     7    2
     2     8     5    1
     3     7     6    1
     4    11     9    1
     5     5     9   ar
     6     5     3   ar
     7     6     4    2
     8     9    10   ar
     9    27    24    1
    10     3     4    1
    11     3     2   ar
    12    13    12   ar
    13    10    12    1
    14    10     2   ar
    15    12    14   ar
    16     2     1    1
    17    24    25    1
    18    24    26    1
    19    24    21    1
    20    21    22    2
    21    21    20    1
    22     1    15    1
    23    22    23    1
    24    20    19    2
    25    23    18    2
    26    19    18    1
    27    15    16    1
    28    18    17    1
    29    17    16    1
########## Name: lig_35
########## Vina_BE: -6.269
########## MW: 326.669
########## clogP: 0.587
########## nonHatoms: 25
########## Vina_LE: -0.251
########## Vina_LipE: -6.856
########## Close_contacts: 0
########## Hydrophob_contacts: 18
########## HBonds: 0
########## Salt_Bridges: 0
########## Pi-Pi_Parallel: 0
########## Pi-Pi_Perpendicular: 0
########## Pi-Cation: 0
########## Halogen_Bonds: 0
@<TRIPOS>MOLECULE
lig_35.pdbqt
 25 27 0 0 0
SMALL
GASTEIGER

@<TRIPOS>ATOM
      1  C        -25.8340   -7.7980  -22.5470 C.ar    1  UNL1       -0.1950
      2  CA       -24.6450   -8.1620  -23.1960 C.ar    1  UNL1       -0.0370
      3  N        -24.9940   -8.8130  -24.3930 N.ar    1  UNL1       -0.2140
      4  C        -26.3670   -8.8240  -24.5090 C.ar    1  UNL1       -0.0420
      5  C        -27.1500   -9.3210  -25.5580 C.2     1  UNL1       -0.0290
      6  C        -28.5490   -9.1810  -25.4510 C.2     1  UNL1       -0.0370
      7  C        -29.1200   -8.5520  -24.3210 C.2     1  UNL1       -0.0660
      8  C        -28.3000   -8.0630  -23.2830 C.2     1  UNL1        0.0110
      9  C        -26.9140   -8.2200  -23.4090 C.ar    1  UNL1       -0.0740
     10  H        -24.3130   -9.1680  -25.0480 H       1  UNL1        0.3110
     11  C        -23.2280   -7.9270  -22.7870 C.2     1  UNL1        0.9270
     12  OXT      -22.7820   -8.4010  -21.7550 O.co2   1  UNL1       -0.8140
     13  O        -22.5700   -7.2090  -23.5270 O.co2   1  UNL1       -0.8140
     14  C        -25.9170   -7.0500  -21.2380 C.3     1  UNL1        0.0980
     15  C        -25.9860   -8.0060  -20.0250 C.3     1  UNL1        0.0260
     16  C        -26.8020   -7.4290  -18.8510 C.3     1  UNL1        0.2600
     17  O        -28.0040   -8.2070  -18.7010 O.2     1  UNL1       -0.3380
     18  C        -29.1060   -8.0560  -19.5140 C.2     1  UNL1        0.1580
     19  C        -29.7980   -9.2170  -19.8860 C.2     1  UNL1       -0.0400
     20  C        -30.9280   -9.1470  -20.7230 C.2     1  UNL1       -0.0300
     21  C        -31.6550  -10.4230  -21.1230 C.3     1  UNL1        0.0910
     22  C        -31.3630   -7.8880  -21.1860 C.2     1  UNL1       -0.0360
     23  C        -30.6710   -6.7220  -20.8180 C.2     1  UNL1        0.0390
     24 CL        -32.7650   -7.7370  -22.2300 Cl      1  UNL1       -0.1280
     25  C        -29.5440   -6.8030  -19.9840 C.2     1  UNL1       -0.0260
@<TRIPOS>BOND
     1     5     6    1
     2     5     4    2
     3     6     7    2
     4    10     3    1
     5     4     3   ar
     6     4     9   ar
     7     3     2   ar
     8     7     8    1
     9    13    11   ar
    10     9     8    2
    11     9     1   ar
    12     2    11    1
    13     2     1   ar
    14    11    12   ar
    15     1    14    1
    16    24    22    1
    17    14    15    1
    18    22    23    2
    19    22    20    1
    20    21    20    1
    21    23    25    1
    22    20    19    2
    23    15    16    1
    24    25    18    2
    25    19    18    1
    26    18    17    1
    27    16    17    1
########## Name: lig_36
########## Vina_BE: -6.602
########## MW: 338.68
########## clogP: 0.668
########## nonHatoms: 26
########## Vina_LE: -0.254
########## Vina_LipE: -7.27
########## Close_contacts: 1
########## Hydrophob_contacts: 12
########## HBonds: 1
########## Salt_Bridges: 0
########## Pi-Pi_Parallel: 0
########## Pi-Pi_Perpendicular: 0
########## Pi-Cation: 0
########## Halogen_Bonds: 0
@<TRIPOS>MOLECULE
lig_36.pdbqt
 26 28 0 0 0
SMALL
GASTEIGER

@<TRIPOS>ATOM
      1  C        -25.2220   -8.2680  -23.4680 C.ar    1  UNL1       -0.1820
      2  CA       -24.0520   -8.4310  -24.3180 C.ar    1  UNL1        0.0400
      3  N        -24.4350   -8.8790  -25.5860 N.ar    1  UNL1       -0.2140
      4  C        -25.8100   -9.0060  -25.5740 C.ar    1  UNL1       -0.0400
      5  C        -26.6390   -9.4230  -26.6220 C.2     1  UNL1       -0.0310
      6  C        -28.0270   -9.4780  -26.3810 C.2     1  UNL1       -0.0350
      7  C        -28.5490   -9.1210  -25.1170 C.2     1  UNL1       -0.0700
      8  C        -27.6900   -8.7040  -24.0780 C.2     1  UNL1        0.0250
      9  C        -26.3130   -8.6550  -24.3380 C.ar    1  UNL1       -0.0700
     10  H        -23.7840   -9.0600  -26.3360 H       1  UNL1        0.3100
     11  C        -22.6120   -8.1960  -24.0070 C.2     1  UNL1        0.8430
     12  O        -22.1960   -8.2620  -22.8630 O.co2   1  UNL1       -0.8210
     13  OXT      -21.8810   -7.9750  -24.9620 O.co2   1  UNL1       -0.8210
     14  C        -25.2290   -7.7960  -22.0330 C.3     1  UNL1        0.1050
     15  C        -25.6680   -6.3180  -21.9100 C.3     1  UNL1       -0.0250
     16  C        -25.8880   -5.8770  -20.4490 C.3     1  UNL1        0.2860
     17  O        -27.2930   -5.6110  -20.2720 O.2     1  UNL1       -0.3480
     18  C        -28.1930   -6.6470  -20.2470 C.2     1  UNL1        0.1410
     19  C        -29.1130   -6.7760  -21.2980 C.2     1  UNL1       -0.0340
     20  C        -30.0620   -7.8160  -21.2990 C.2     1  UNL1       -0.0570
     21  C        -30.0840   -8.7250  -20.2170 C.2     1  UNL1       -0.0260
     22  C        -29.1710   -8.5830  -19.1570 C.2     1  UNL1        0.0580
     23 CL        -31.2470  -10.0370  -20.1350 Cl      1  UNL1       -0.1370
     24  C        -28.2270   -7.5430  -19.1700 C.2     1  UNL1        0.0360
     25  C        -31.0480   -7.9190  -22.4580 C.3     1  UNL1        0.0570
     26  C        -32.4120   -7.2890  -22.1140 C.3     1  UNL1        0.0110
@<TRIPOS>BOND
     1     5     6    1
     2     5     4    2
     3     6     7    2
     4    10     3    1
     5     3     4   ar
     6     3     2   ar
     7     4     9   ar
     8     7     8    1
     9    13    11   ar
    10     9     8    2
    11     9     1   ar
    12     2    11    1
    13     2     1   ar
    14    11    12   ar
    15     1    14    1
    16    25    26    1
    17    25    20    1
    18    14    15    1
    19    15    16    1
    20    20    19    1
    21    20    21    2
    22    19    18    2
    23    16    17    1
    24    17    18    1
    25    18    24    1
    26    21    23    1
    27    21    22    1
    28    24    22    2
########## Name: lig_37
########## Vina_BE: -6.531
########## MW: 338.68
########## clogP: 0.742
########## nonHatoms: 26
########## Vina_LE: -0.251
########## Vina_LipE: -7.273
########## Close_contacts: 1
########## Hydrophob_contacts: 14
########## HBonds: 1
########## Salt_Bridges: 0
########## Pi-Pi_Parallel: 0
########## Pi-Pi_Perpendicular: 0
########## Pi-Cation: 0
########## Halogen_Bonds: 0
@<TRIPOS>MOLECULE
lig_37.pdbqt
 26 28 0 0 0
SMALL
GASTEIGER

@<TRIPOS>ATOM
      1  C        -24.2020   -8.5370  -24.4700 C.ar    1  UNL1       -0.2010
      2  CA       -24.1620   -9.3820  -25.6530 C.ar    1  UNL1        0.0730
      3  N        -25.4610   -9.7230  -26.0430 N.ar    1  UNL1       -0.2220
      4  C        -26.3240   -9.1300  -25.1400 C.ar    1  UNL1       -0.0430
      5  C        -27.7220   -9.2010  -25.1220 C.2     1  UNL1       -0.0310
      6  C        -28.4030   -8.5170  -24.0950 C.2     1  UNL1       -0.0380
      7  C        -27.6830   -7.7870  -23.1200 C.2     1  UNL1       -0.0640
      8  C        -26.2730   -7.7350  -23.1620 C.2     1  UNL1        0.0190
      9  C        -25.6160   -8.4200  -24.1920 C.ar    1  UNL1       -0.0560
     10  H        -25.6740  -10.3070  -26.8370 H       1  UNL1        0.2980
     11  C        -22.9730   -9.8800  -26.4120 C.2     1  UNL1        0.8300
     12  O        -22.7130  -11.0710  -26.4700 O.co2   1  UNL1       -0.8100
     13  OXT      -22.2940   -9.0310  -26.9730 O.co2   1  UNL1       -0.8100
     14  C        -22.9860   -7.9960  -23.7640 C.3     1  UNL1        0.0940
     15  C        -23.0210   -8.2810  -22.2420 C.3     1  UNL1       -0.0200
     16  C        -22.6500   -7.0440  -21.3990 C.3     1  UNL1        0.2770
     17  O        -23.3090   -7.1360  -20.1200 O.2     1  UNL1       -0.3530
     18  C        -24.6500   -6.8620  -20.0090 C.2     1  UNL1        0.1400
     19  C        -25.1740   -5.6200  -20.4040 C.2     1  UNL1       -0.0100
     20  C        -26.5520   -5.3640  -20.2970 C.2     1  UNL1       -0.0400
     21  C        -27.0900   -4.0050  -20.7250 C.3     1  UNL1        0.0910
     22  C        -27.4110   -6.3700  -19.8010 C.2     1  UNL1       -0.0290
     23  C        -26.8890   -7.6270  -19.4210 C.2     1  UNL1       -0.0400
     24 CL        -29.1360   -6.0630  -19.6660 Cl      1  UNL1       -0.1380
     25  C        -25.5060   -7.8630  -19.5340 C.2     1  UNL1       -0.0100
     26  C        -27.7980   -8.7290  -18.8960 C.3     1  UNL1        0.0910
@<TRIPOS>BOND
     1    13    11   ar
     2    10     3    1
     3    12    11   ar
     4    11     2    1
     5     3     2   ar
     6     3     4   ar
     7     2     1   ar
     8     4     5    2
     9     4     9   ar
    10     5     6    1
    11     1     9   ar
    12     1    14    1
    13     9     8    2
    14     6     7    2
    15    14    15    1
    16     8     7    1
    17    15    16    1
    18    16    17    1
    19    21    20    1
    20    19    20    1
    21    19    18    2
    22    20    22    2
    23    17    18    1
    24    18    25    1
    25    22    24    1
    26    22    23    1
    27    25    23    2
    28    23    26    1
########## Name: lig_43
########## Vina_BE: -7.274
########## MW: 327.248
########## clogP: 1.685
########## nonHatoms: 27
########## Vina_LE: -0.269
########## Vina_LipE: -8.959
########## Close_contacts: 0
########## Hydrophob_contacts: 26
########## HBonds: 2
########## Salt_Bridges: 0
########## Pi-Pi_Parallel: 0
########## Pi-Pi_Perpendicular: 0
########## Pi-Cation: 0
########## Halogen_Bonds: 0
@<TRIPOS>MOLECULE
lig_43.pdbqt
 27 30 0 0 0
SMALL
GASTEIGER

@<TRIPOS>ATOM
      1  C        -25.1170   -7.4380  -21.9230 C.3     1  UNL1        0.1050
      2  C        -25.3120   -8.0570  -23.2880 C.ar    1  UNL1       -0.1800
      3  C        -26.5550   -8.5020  -23.8750 C.ar    1  UNL1       -0.0710
      4  C        -27.8550   -8.5170  -23.3550 C.2     1  UNL1        0.0250
      5  C        -26.2930   -8.9430  -25.1430 C.ar    1  UNL1       -0.0400
      6  C        -28.8930   -9.0030  -24.1790 C.2     1  UNL1       -0.0700
      7  C        -28.6160   -9.4570  -25.4900 C.2     1  UNL1       -0.0350
      8  C        -27.2980   -9.4300  -25.9890 C.2     1  UNL1       -0.0330
      9  N        -24.9470   -8.8080  -25.3980 N.ar    1  UNL1       -0.2140
     10  CA       -24.3230   -8.2490  -24.2680 C.ar    1  UNL1       -0.0480
     11  H        -24.4510   -9.0320  -26.2490 H       1  UNL1        0.3100
     12  C        -22.8610   -7.9510  -24.2390 C.2     1  UNL1        0.9320
     13  O        -22.1160   -8.9050  -24.4030 O.co2   1  UNL1       -0.8220
     14  OXT      -22.4490   -6.8210  -24.0370 O.co2   1  UNL1       -0.8220
     15  C        -25.7100   -6.0130  -21.8300 C.3     1  UNL1       -0.0240
     16  C        -25.7950   -5.4750  -20.3790 C.3     1  UNL1        0.2800
     17  O        -27.1830   -5.3310  -19.9950 O.2     1  UNL1       -0.3510
     18  C        -28.0490   -6.4050  -19.9670 C.2     1  UNL1        0.1230
     19  C        -27.7140   -7.5220  -19.1870 C.2     1  UNL1       -0.0090
     20  C        -28.5490   -8.6540  -19.1710 C.2     1  UNL1       -0.0040
     21  C        -29.7270   -8.6690  -19.9410 C.2     1  UNL1       -0.0700
     22  C        -30.5630   -9.8010  -19.9520 C.2     1  UNL1       -0.0070
     23  C        -30.0700   -7.5400  -20.7140 C.2     1  UNL1       -0.0050
     24  C        -31.7320   -9.8060  -20.7330 C.2     1  UNL1       -0.0330
     25  C        -32.0680   -8.6820  -21.5050 C.2     1  UNL1       -0.0250
     26  C        -31.2380   -7.5490  -21.4960 C.2     1  UNL1        0.0610
     27  C        -29.2390   -6.4100  -20.7150 C.2     1  UNL1        0.0260
@<TRIPOS>BOND
     1    11     9    1
     2     8     7    2
     3     8     5    1
     4     7     6    1
     5     9     5   ar
     6     9    10   ar
     7     5     3   ar
     8    13    12   ar
     9    10    12    1
    10    10     2   ar
    11    12    14   ar
    12     6     4    2
    13     3     4    1
    14     3     2   ar
    15     2     1    1
    16     1    15    1
    17    15    16    1
    18    25    26    2
    19    25    24    1
    20    26    23    1
    21    24    22    2
    22    27    23    1
    23    27    18    2
    24    23    21    2
    25    16    17    1
    26    17    18    1
    27    18    19    1
    28    22    21    1
    29    21    20    1
    30    19    20    2
########## Name: lig_46
########## Vina_BE: -7.313
########## MW: 315.238
########## clogP: 0.06
########## nonHatoms: 26
########## Vina_LE: -0.281
########## Vina_LipE: -7.373
########## Close_contacts: 0
########## Hydrophob_contacts: 21
########## HBonds: 2
########## Salt_Bridges: 0
########## Pi-Pi_Parallel: 0
########## Pi-Pi_Perpendicular: 0
########## Pi-Cation: 0
########## Halogen_Bonds: 0
@<TRIPOS>MOLECULE
lig_46.pdbqt
 26 29 0 0 0
SMALL
GASTEIGER

@<TRIPOS>ATOM
      1  CA       -24.3420   -8.2190  -23.4330 C.ar    1  UNL1        0.0410
      2  N        -24.5890   -8.8420  -24.6560 N.ar    1  UNL1       -0.2150
      3  C        -25.9640   -8.8870  -24.7470 C.ar    1  UNL1       -0.0400
      4  C        -26.7450   -9.4140  -25.7820 C.2     1  UNL1       -0.0330
      5  C        -28.1460   -9.3450  -25.6450 C.2     1  UNL1       -0.0360
      6  C        -28.7250   -8.7580  -24.4960 C.2     1  UNL1       -0.0710
      7  C        -27.9110   -8.2350  -23.4680 C.2     1  UNL1        0.0250
      8  C        -26.5200   -8.3110  -23.6200 C.ar    1  UNL1       -0.0710
      9  C        -25.5090   -7.8810  -22.7780 C.ar    1  UNL1       -0.1800
     10  H        -23.8780   -9.1690  -25.2940 H       1  UNL1        0.3100
     11  C        -22.9380   -7.9960  -22.9720 C.2     1  UNL1        0.8430
     12  OXT      -22.1600   -7.5510  -23.8040 O.co2   1  UNL1       -0.8210
     13  O        -22.5880   -8.2880  -21.8380 O.co2   1  UNL1       -0.8210
     14  C        -25.7010   -7.1820  -21.4430 C.3     1  UNL1        0.1040
     15  C        -26.3480   -5.7850  -21.5830 C.3     1  UNL1       -0.0250
     16  C        -26.5440   -5.0590  -20.2290 C.3     1  UNL1        0.2810
     17  O        -27.9270   -5.1580  -19.8230 O.2     1  UNL1       -0.3520
     18  C        -28.6260   -6.3480  -19.8440 C.2     1  UNL1        0.1360
     19  C        -28.2960   -7.3180  -18.8760 C.2     1  UNL1       -0.0540
     20  C        -28.9590   -8.5600  -18.8450 C.2     1  UNL1        0.0120
     21  C        -29.9580   -8.8080  -19.7970 C.2     1  UNL1       -0.1440
     22  C        -30.2930   -7.8520  -20.7450 C.2     1  UNL1       -0.0520
     23  C        -30.7900  -10.0590  -19.9530 C.3     1  UNL1        0.0490
     24  C        -29.6420   -6.6120  -20.7870 C.2     1  UNL1        0.0400
     25  C        -31.3940   -8.3310  -21.6570 C.3     1  UNL1        0.0880
     26  C        -31.8740   -9.6480  -20.9880 C.3     1  UNL1       -0.0140
@<TRIPOS>BOND
     1     4     5    1
     2     4     3    2
     3     5     6    2
     4    10     2    1
     5     3     2   ar
     6     3     8   ar
     7     2     1   ar
     8     6     7    1
     9    12    11   ar
    10     8     7    2
    11     8     9   ar
    12     1    11    1
    13     1     9   ar
    14    11    13   ar
    15     9    14    1
    16    25    26    1
    17    25    22    1
    18    15    14    1
    19    15    16    1
    20    26    23    1
    21    24    22    1
    22    24    18    2
    23    22    21    2
    24    16    17    1
    25    23    21    1
    26    18    17    1
    27    18    19    1
    28    21    20    1
    29    19    20    2
########## Name: lig_47
########## Vina_BE: -6.934
########## MW: 329.244
########## clogP: 0.864
########## nonHatoms: 27
########## Vina_LE: -0.257
########## Vina_LipE: -7.798
########## Close_contacts: 0
########## Hydrophob_contacts: 16
########## HBonds: 2
########## Salt_Bridges: 0
########## Pi-Pi_Parallel: 0
########## Pi-Pi_Perpendicular: 0
########## Pi-Cation: 1
########## Halogen_Bonds: 0
@<TRIPOS>MOLECULE
lig_47.pdbqt
 27 30 0 0 0
SMALL
GASTEIGER

@<TRIPOS>ATOM
      1  C        -25.2570   -7.4990  -21.8330 C.3     1  UNL1        0.0930
      2  C        -25.3680   -8.1030  -23.2150 C.ar    1  UNL1       -0.1990
      3  C        -26.5730   -8.5340  -23.8860 C.ar    1  UNL1       -0.0570
      4  C        -27.9120   -8.5090  -23.4690 C.2     1  UNL1        0.0210
      5  C        -26.2290   -9.0010  -25.1250 C.ar    1  UNL1       -0.0420
      6  C        -28.8950   -8.9900  -24.3600 C.2     1  UNL1       -0.0640
      7  C        -28.5300   -9.4760  -25.6360 C.2     1  UNL1       -0.0370
      8  C        -27.1770   -9.4830  -26.0350 C.2     1  UNL1       -0.0300
      9  N        -24.8680   -8.8880  -25.2850 N.ar    1  UNL1       -0.2230
     10  CA       -24.3160   -8.3130  -24.1250 C.ar    1  UNL1       -0.0140
     11  H        -24.3200   -9.1270  -26.0990 H       1  UNL1        0.2970
     12  C        -22.8530   -8.0220  -24.0090 C.2     1  UNL1        0.9180
     13  OXT      -22.0990   -8.8650  -24.4700 O.co2   1  UNL1       -0.8120
     14  O        -22.4410   -7.0090  -23.4680 O.co2   1  UNL1       -0.8120
     15  C        -25.7010   -6.0180  -21.7950 C.3     1  UNL1       -0.0190
     16  C        -25.8400   -5.4470  -20.3610 C.3     1  UNL1        0.2750
     17  O        -27.2400   -5.3070  -20.0220 O.2     1  UNL1       -0.3530
     18  C        -28.0980   -6.3860  -19.9870 C.2     1  UNL1        0.1180
     19  C        -27.7710   -7.4910  -19.1870 C.2     1  UNL1       -0.0080
     20  C        -28.6090   -8.6230  -19.1660 C.2     1  UNL1       -0.0380
     21  C        -29.7770   -8.6730  -19.9470 C.2     1  UNL1        0.3580
     22  N        -30.5510   -9.7780  -19.9270 N.2     1  UNL1       -0.6790
     23  C        -30.1020   -7.5500  -20.7410 C.2     1  UNL1       -0.1170
     24  C        -31.6550   -9.8030  -20.6970 C.2     1  UNL1        0.3890
     25  C        -32.0410   -8.7340  -21.5200 C.2     1  UNL1       -0.1390
     26  C        -31.2490   -7.5760  -21.5480 C.2     1  UNL1        0.1450
     27  C        -29.2790   -6.4120  -20.7430 C.2     1  UNL1        0.0340
@<TRIPOS>BOND
     1    11     9    1
     2     8     7    2
     3     8     5    1
     4     7     6    1
     5     9     5   ar
     6     9    10   ar
     7     5     3   ar
     8    13    12   ar
     9     6     4    2
    10    10    12    1
    11    10     2   ar
    12    12    14   ar
    13     3     4    1
    14     3     2   ar
    15     2     1    1
    16     1    15    1
    17    15    16    1
    18    26    25    2
    19    26    23    1
    20    25    24    1
    21    27    23    1
    22    27    18    2
    23    23    21    2
    24    24    22    2
    25    16    17    1
    26    17    18    1
    27    18    19    1
    28    21    22    1
    29    21    20    1
    30    19    20    2
########## Name: lig_48
########## Vina_BE: -6.488
########## MW: 318.241
########## clogP: 1.356
########## nonHatoms: 27
########## Vina_LE: -0.24
########## Vina_LipE: -7.844
########## Close_contacts: 1
########## Hydrophob_contacts: 12
########## HBonds: 1
########## Salt_Bridges: 0
########## Pi-Pi_Parallel: 0
########## Pi-Pi_Perpendicular: 0
########## Pi-Cation: 1
########## Halogen_Bonds: 0
@<TRIPOS>MOLECULE
lig_48.pdbqt
 27 30 0 0 0
SMALL
GASTEIGER

@<TRIPOS>ATOM
      1  C        -23.6780   -7.4150  -23.2460 C.3     1  UNL1        0.1070
      2  C        -24.6710   -8.1780  -24.0860 C.ar    1  UNL1       -0.1800
      3  C        -26.1080   -8.3120  -24.0060 C.ar    1  UNL1       -0.0710
      4  C        -27.0140   -7.7450  -23.1010 C.2     1  UNL1        0.0260
      5  C        -26.5390   -9.1480  -25.0170 C.ar    1  UNL1       -0.0400
      6  C        -28.3820   -8.0500  -23.2490 C.2     1  UNL1       -0.0710
      7  C        -28.8200   -8.9070  -24.2850 C.2     1  UNL1       -0.0360
      8  C        -27.8920   -9.4680  -25.1870 C.2     1  UNL1       -0.0330
      9  N        -25.4680   -9.5850  -25.7720 N.ar    1  UNL1       -0.2150
     10  CA       -24.3180   -9.0120  -25.2220 C.ar    1  UNL1        0.0420
     11  H        -25.4590  -10.2060  -26.5670 H       1  UNL1        0.3100
     12  C        -22.9680   -9.2970  -25.7980 C.2     1  UNL1        0.8440
     13  O        -22.6920  -10.4770  -25.9660 O.co2   1  UNL1       -0.8220
     14  OXT      -22.1870   -8.3970  -26.0650 O.co2   1  UNL1       -0.8220
     15  C        -23.2270   -8.2200  -22.0020 C.3     1  UNL1       -0.0260
     16  C        -23.3280   -7.4390  -20.6720 C.3     1  UNL1        0.2890
     17  O        -24.5610   -7.7260  -19.9780 O.2     1  UNL1       -0.3500
     18  C        -25.6700   -6.9060  -19.9730 C.2     1  UNL1        0.1940
     19  C        -25.5080   -5.5940  -20.4620 C.2     1  UNL1       -0.0790
     20  C        -26.5990   -4.6980  -20.5310 C.2     1  UNL1        0.0210
     21  C        -27.8810   -5.1090  -20.1220 C.2     1  UNL1       -0.0830
     22  C        -28.0290   -6.4190  -19.6550 C.2     1  UNL1       -0.0070
     23  N        -29.1930   -7.0180  -19.2070 N.pl3   1  UNL1       -0.2530
     24  C        -26.9630   -7.3070  -19.5790 C.2     1  UNL1       -0.1320
     25  C        -28.7750   -8.2920  -18.8440 C.2     1  UNL1        0.0400
     26  C        -27.4480   -8.4970  -19.0670 C.2     1  UNL1        0.0740
     27  H        -30.1010   -6.6020  -19.0890 H       1  UNL1        0.2770
@<TRIPOS>BOND
     1    11     9    1
     2    14    12   ar
     3    13    12   ar
     4    12    10    1
     5     9    10   ar
     6     9     5   ar
     7    10     2   ar
     8     8     5    1
     9     8     7    2
    10     5     3   ar
    11     7     6    1
    12     2     3   ar
    13     2     1    1
    14     3     4    1
    15     6     4    2
    16     1    15    1
    17    15    16    1
    18    16    17    1
    19    20    19    1
    20    20    21    2
    21    19    18    2
    22    21    22    1
    23    17    18    1
    24    18    24    1
    25    22    24    2
    26    22    23    1
    27    24    26    1
    28    23    27    1
    29    23    25    1
    30    26    25    2
########## Name: lig_49
########## Vina_BE: -6.515
########## MW: 362.122
########## clogP: 1.276
########## nonHatoms: 26
########## Vina_LE: -0.251
########## Vina_LipE: -7.791
########## Close_contacts: 0
########## Hydrophob_contacts: 11
########## HBonds: 1
########## Salt_Bridges: 0
########## Pi-Pi_Parallel: 0
########## Pi-Pi_Perpendicular: 0
########## Pi-Cation: 0
########## Halogen_Bonds: 0
@<TRIPOS>MOLECULE
lig_49.pdbqt
 26 28 0 0 0
SMALL
GASTEIGER

@<TRIPOS>ATOM
      1  C        -25.3100   -8.2510  -23.4180 C.ar    1  UNL1       -0.1740
      2  CA       -23.9070   -8.2090  -23.7910 C.ar    1  UNL1        0.0510
      3  N        -23.7440   -8.6390  -25.1070 N.ar    1  UNL1       -0.2090
      4  C        -25.0020   -8.9190  -25.6000 C.ar    1  UNL1       -0.0400
      5  C        -25.3130   -9.3470  -26.8960 C.2     1  UNL1       -0.0230
      6  C        -26.6670   -9.5530  -27.2170 C.2     1  UNL1       -0.0280
      7  C        -27.6670   -9.3220  -26.2480 C.2     1  UNL1       -0.0470
      8  C        -27.3330   -8.8890  -24.9480 C.2     1  UNL1        0.0560
      9 CL        -28.6340   -8.5950  -23.8090 Cl      1  UNL1       -0.1430
     10  C        -25.9710   -8.6960  -24.6360 C.ar    1  UNL1       -0.0600
     11  H        -22.8500   -8.6800  -25.5730 H       1  UNL1        0.3140
     12  C        -22.7300   -7.7780  -22.9840 C.2     1  UNL1        0.8390
     13  O        -21.9530   -7.0120  -23.5370 O.co2   1  UNL1       -0.8100
     14  OXT      -22.5840   -8.1530  -21.8330 O.co2   1  UNL1       -0.8100
     15  C        -25.8140   -7.8710  -22.0460 C.3     1  UNL1        0.1160
     16  C        -25.9980   -6.3410  -21.8980 C.3     1  UNL1        0.0410
     17  C        -26.0190   -5.8700  -20.4310 C.3     1  UNL1        0.2120
     18  O        -27.3790   -5.5990  -20.0480 O.2     1  UNL1       -0.3330
     19  C        -28.2970   -6.6160  -20.0060 C.2     1  UNL1        0.1530
     20  C        -29.4220   -6.6010  -20.8460 C.2     1  UNL1       -0.0300
     21  C        -30.3530   -7.6570  -20.8080 C.2     1  UNL1       -0.0340
     22  C        -31.5640   -7.6290  -21.7290 C.3     1  UNL1        0.0910
     23  C        -30.1390   -8.7330  -19.9200 C.2     1  UNL1       -0.0280
     24  C        -29.0040   -8.7510  -19.0900 C.2     1  UNL1        0.0370
     25 CL        -31.2630  -10.0760  -19.8290 Cl      1  UNL1       -0.1260
     26  C        -28.0810   -7.6930  -19.1380 C.2     1  UNL1       -0.0160
@<TRIPOS>BOND
     1     6     5    1
     2     6     7    2
     3     5     4    2
     4     7     8    1
     5     4     3   ar
     6     4    10   ar
     7    11     3    1
     8     3     2   ar
     9     8    10    2
    10     8     9    1
    11    10     1   ar
    12     2     1   ar
    13     2    12    1
    14    13    12   ar
    15     1    15    1
    16    12    14   ar
    17    15    16    1
    18    16    17    1
    19    22    21    1
    20    20    21    1
    21    20    19    2
    22    21    23    2
    23    17    18    1
    24    18    19    1
    25    19    26    1
    26    23    25    1
    27    23    24    1
    28    26    24    2
########## Name: lig_50
########## Vina_BE: -4.862
########## MW: 374.133
########## clogP: 3.158
########## nonHatoms: 27
########## Vina_LE: -0.18
########## Vina_LipE: -8.02
########## Close_contacts: 0
########## Hydrophob_contacts: 11
########## HBonds: 0
########## Salt_Bridges: 0
########## Pi-Pi_Parallel: 0
########## Pi-Pi_Perpendicular: 0
########## Pi-Cation: 0
########## Halogen_Bonds: 0
@<TRIPOS>MOLECULE
lig_50.pdbqt
 27 29 0 0 0
SMALL
GASTEIGER

@<TRIPOS>ATOM
      1  C        -27.4560   -7.7070  -21.7580 C.ar    1  UNL1       -0.1640
      2  CA       -27.9770   -7.4870  -20.4730 C.ar    1  UNL1       -0.0500
      3  N        -26.8950   -7.2830  -19.6020 N.ar    1  UNL1       -0.2090
      4  C        -25.7230   -7.4030  -20.3120 C.ar    1  UNL1       -0.0360
      5  C        -24.4160   -7.3000  -19.8220 C.2     1  UNL1       -0.0240
      6  C        -23.3590   -7.4850  -20.7330 C.2     1  UNL1       -0.0220
      7  C        -23.6340   -7.7740  -22.0890 C.2     1  UNL1       -0.0480
      8  C        -24.9620   -7.8750  -22.5530 C.2     1  UNL1        0.0590
      9 CL        -25.2250   -8.2680  -24.2400 Cl      1  UNL1       -0.1270
     10  C        -26.0080   -7.6710  -21.6290 C.ar    1  UNL1       -0.0630
     11  H        -27.0100   -7.1070  -18.6150 H       1  UNL1        0.3140
     12  C        -29.3900   -7.4560  -19.9940 C.2     1  UNL1        0.9330
     13  OXT      -29.7980   -6.3680  -19.6130 O.co2   1  UNL1       -0.8180
     14  O        -30.0770   -8.4640  -19.9580 O.co2   1  UNL1       -0.8180
     15  C        -28.3070   -7.9280  -22.9880 C.3     1  UNL1        0.1110
     16  C        -28.9310   -6.6100  -23.5150 C.3     1  UNL1       -0.0170
     17  C        -28.0110   -5.8780  -24.5110 C.3     1  UNL1        0.2780
     18  O        -27.7800   -4.5400  -24.0280 O.2     1  UNL1       -0.3480
     19  C        -26.8860   -4.3150  -23.0110 C.2     1  UNL1        0.1430
     20  C        -25.5030   -4.3600  -23.2420 C.2     1  UNL1       -0.0060
     21  C        -24.5990   -4.1110  -22.1930 C.2     1  UNL1       -0.0430
     22  C        -23.1030   -4.1710  -22.4720 C.3     1  UNL1        0.0850
     23  C        -25.0950   -3.8050  -20.9060 C.2     1  UNL1       -0.0300
     24  C        -26.4870   -3.7430  -20.6760 C.2     1  UNL1       -0.0430
     25 CL        -23.9760   -3.4910  -19.5880 Cl      1  UNL1       -0.1380
     26  C        -27.3750   -3.9950  -21.7390 C.2     1  UNL1       -0.0060
     27  C        -27.0430   -3.4010  -19.3000 C.3     1  UNL1        0.0850
@<TRIPOS>BOND
     1    17    18    1
     2    17    16    1
     3     9     8    1
     4    18    19    1
     5    16    15    1
     6    20    19    2
     7    20    21    1
     8    19    26    1
     9    15     1    1
    10     8     7    2
    11     8    10    1
    12    22    21    1
    13    21    23    2
    14     7     6    1
    15     1    10   ar
    16     1     2   ar
    17    26    24    2
    18    10     4   ar
    19    23    24    1
    20    23    25    1
    21     6     5    2
    22    24    27    1
    23     2    12    1
    24     2     3   ar
    25     4     5    1
    26     4     3   ar
    27    12    14   ar
    28    12    13   ar
    29     3    11    1
########## Name: lig_52
########## Vina_BE: -6.737
########## MW: 362.122
########## clogP: 1.35
########## nonHatoms: 26
########## Vina_LE: -0.259
########## Vina_LipE: -8.087
########## Close_contacts: 0
########## Hydrophob_contacts: 13
########## HBonds: 2
########## Salt_Bridges: 0
########## Pi-Pi_Parallel: 0
########## Pi-Pi_Perpendicular: 0
########## Pi-Cation: 0
########## Halogen_Bonds: 1
@<TRIPOS>MOLECULE
lig_52.pdbqt
 26 28 0 0 0
SMALL
GASTEIGER

@<TRIPOS>ATOM
      1  C        -25.5380   -7.3540  -22.6210 C.ar    1  UNL1       -0.1740
      2  CA       -24.4210   -8.0600  -23.2220 C.ar    1  UNL1        0.0510
      3  N        -24.8760   -8.9370  -24.2110 N.ar    1  UNL1       -0.2090
      4  C        -26.2470   -8.7740  -24.2920 C.ar    1  UNL1       -0.0400
      5  C        -27.1310   -9.3950  -25.1830 C.2     1  UNL1       -0.0230
      6  C        -28.4950   -9.0460  -25.1080 C.2     1  UNL1       -0.1420
      7 CL        -29.6420   -9.7870  -26.2020 Cl      1  UNL1       -0.1430
      8  C        -28.9400   -8.0940  -24.1660 C.2     1  UNL1       -0.0570
      9  C        -28.0290   -7.4830  -23.2810 C.2     1  UNL1        0.1800
     10  C        -26.6780   -7.8460  -23.3660 C.ar    1  UNL1       -0.0600
     11  H        -24.2710   -9.5170  -24.7730 H       1  UNL1        0.3140
     12  C        -22.9650   -7.9240  -22.9260 C.2     1  UNL1        0.8390
     13  OXT      -22.1870   -7.5530  -23.7900 O.co2   1  UNL1       -0.8100
     14  O        -22.6130   -8.2240  -21.7950 O.co2   1  UNL1       -0.8100
     15  C        -25.4110   -6.2740  -21.5750 C.3     1  UNL1        0.1160
     16  C        -26.2980   -6.5490  -20.3380 C.3     1  UNL1        0.0410
     17  C        -27.2950   -5.4100  -20.0430 C.3     1  UNL1        0.2120
     18  O        -28.3730   -5.9420  -19.2480 O.2     1  UNL1       -0.3330
     19  C        -29.1530   -7.0050  -19.6450 C.2     1  UNL1        0.1530
     20  C        -30.1440   -6.7580  -20.6060 C.2     1  UNL1       -0.0300
     21  C        -30.9970   -7.7880  -21.0440 C.2     1  UNL1       -0.0340
     22  C        -32.0680   -7.4930  -22.0830 C.3     1  UNL1        0.0910
     23  C        -30.8480   -9.0810  -20.5020 C.2     1  UNL1       -0.0280
     24  C        -29.8640   -9.3320  -19.5320 C.2     1  UNL1        0.0370
     25 CL        -31.8800  -10.4050  -21.0090 Cl      1  UNL1       -0.1260
     26  C        -29.0170   -8.2970  -19.1000 C.2     1  UNL1       -0.0160
@<TRIPOS>BOND
     1     7     6    1
     2     5     6    1
     3     5     4    2
     4     6     8    2
     5    11     3    1
     6     4     3   ar
     7     4    10   ar
     8     3     2   ar
     9     8     9    1
    10    13    12   ar
    11    10     9    2
    12    10     1   ar
    13     2    12    1
    14     2     1   ar
    15    12    14   ar
    16     1    15    1
    17    22    21    1
    18    15    16    1
    19    21    20    1
    20    21    23    2
    21    25    23    1
    22    20    19    2
    23    23    24    1
    24    16    17    1
    25    17    18    1
    26    19    18    1
    27    19    26    1
    28    24    26    2
########## Name: lig_53
########## Vina_BE: -6.631
########## MW: 374.133
########## clogP: 1.505
########## nonHatoms: 27
########## Vina_LE: -0.246
########## Vina_LipE: -8.136
########## Close_contacts: 2
########## Hydrophob_contacts: 11
########## HBonds: 1
########## Salt_Bridges: 0
########## Pi-Pi_Parallel: 0
########## Pi-Pi_Perpendicular: 0
########## Pi-Cation: 0
########## Halogen_Bonds: 0
@<TRIPOS>MOLECULE
lig_53.pdbqt
 27 29 0 0 0
SMALL
GASTEIGER

@<TRIPOS>ATOM
      1  C        -24.1290   -8.5720  -24.5670 C.ar    1  UNL1       -0.1640
      2  CA       -24.0950   -9.4550  -25.6560 C.ar    1  UNL1       -0.0500
      3  N        -25.4240   -9.7270  -26.0270 N.ar    1  UNL1       -0.2090
      4  C        -26.2710   -9.0410  -25.1830 C.ar    1  UNL1       -0.0360
      5  C        -27.6710   -9.0250  -25.1730 C.2     1  UNL1       -0.0240
      6  C        -28.3080   -8.2410  -24.1910 C.2     1  UNL1       -0.1370
      7 CL        -30.0560   -8.1790  -24.1250 Cl      1  UNL1       -0.1270
      8  C        -27.5450   -7.5040  -23.2570 C.2     1  UNL1       -0.0580
      9  C        -26.1350   -7.5450  -23.2950 C.2     1  UNL1        0.1840
     10  C        -25.5240   -8.3300  -24.2820 C.ar    1  UNL1       -0.0630
     11  H        -25.6740  -10.3420  -26.7880 H       1  UNL1        0.3140
     12  C        -22.9200  -10.0560  -26.3530 C.2     1  UNL1        0.9330
     13  O        -22.6850  -11.2520  -26.2800 O.co2   1  UNL1       -0.8180
     14  OXT      -22.2320   -9.2840  -27.0040 O.co2   1  UNL1       -0.8180
     15  C        -22.9140   -8.0370  -23.8520 C.3     1  UNL1        0.1110
     16  C        -22.9760   -8.2920  -22.3250 C.3     1  UNL1       -0.0170
     17  C        -22.7100   -7.0160  -21.5010 C.3     1  UNL1        0.2780
     18  O        -23.3470   -7.1550  -20.2150 O.2     1  UNL1       -0.3480
     19  C        -24.6840   -6.8740  -20.0710 C.2     1  UNL1        0.1430
     20  C        -25.2050   -5.6200  -20.4280 C.2     1  UNL1       -0.0060
     21  C        -26.5790   -5.3570  -20.2880 C.2     1  UNL1       -0.0430
     22  C        -27.1160   -3.9850  -20.6750 C.3     1  UNL1        0.0850
     23  C        -27.4350   -6.3690  -19.7980 C.2     1  UNL1       -0.0300
     24  C        -26.9150   -7.6360  -19.4570 C.2     1  UNL1       -0.0430
     25 CL        -29.1550   -6.0520  -19.6220 Cl      1  UNL1       -0.1380
     26  C        -25.5370   -7.8800  -19.6030 C.2     1  UNL1       -0.0060
     27  C        -27.8230   -8.7430  -18.9370 C.3     1  UNL1        0.0850
@<TRIPOS>BOND
     1    14    12   ar
     2    11     3    1
     3    12    13   ar
     4    12     2    1
     5     3     2   ar
     6     3     4   ar
     7     2     1   ar
     8     4     5    2
     9     4    10   ar
    10     5     6    1
    11     1    10   ar
    12     1    15    1
    13    10     9    2
    14     6     7    1
    15     6     8    2
    16    15    16    1
    17     9     8    1
    18    16    17    1
    19    17    18    1
    20    22    21    1
    21    20    21    1
    22    20    19    2
    23    21    23    2
    24    18    19    1
    25    19    26    1
    26    23    25    1
    27    23    24    1
    28    26    24    2
    29    24    27    1
########## Name: lig_56
########## Vina_BE: -6.255
########## MW: 349.683
########## clogP: 0.609
########## nonHatoms: 26
########## Vina_LE: -0.241
########## Vina_LipE: -6.864
########## Close_contacts: 0
########## Hydrophob_contacts: 17
########## HBonds: 0
########## Salt_Bridges: 0
########## Pi-Pi_Parallel: 0
########## Pi-Pi_Perpendicular: 0
########## Pi-Cation: 0
########## Halogen_Bonds: 1
@<TRIPOS>MOLECULE
lig_56.pdbqt
 26 28 0 0 0
SMALL
GASTEIGER

@<TRIPOS>ATOM
      1  C        -25.2570   -6.6960  -19.9850 C.ar    1  UNL1       -0.1970
      2  C        -25.4240   -5.3110  -20.4070 C.ar    1  UNL1        0.0660
      3  N        -26.7980   -4.9780  -20.4060 N.ar    1  UNL1       -0.0970
      4  C        -27.4130   -3.7030  -20.8050 C.3     1  UNL1        0.1750
      5  C        -27.4810   -6.1030  -19.9560 C.ar    1  UNL1       -0.0460
      6  C        -28.8610   -6.2550  -19.7360 C.2     1  UNL1       -0.0230
      7  C        -29.3260   -7.4920  -19.2470 C.2     1  UNL1       -0.0410
      8  C        -28.4220   -8.5440  -18.9820 C.2     1  UNL1       -0.0640
      9  C        -27.0430   -8.3690  -19.2080 C.2     1  UNL1        0.0090
     10  C        -26.6010   -7.1340  -19.7000 C.ar    1  UNL1       -0.0690
     11  C        -24.3260   -4.3540  -20.7790 C.2     1  UNL1        0.8400
     12  O        -24.0820   -4.1240  -21.9530 O.co2   1  UNL1       -0.8120
     13  O        -23.6650   -3.8360  -19.8890 O.co2   1  UNL1       -0.8120
     14  C        -23.9390   -7.4200  -19.8530 C.3     1  UNL1        0.0980
     15  C        -23.1090   -7.3720  -21.1560 C.3     1  UNL1        0.0270
     16  C        -23.6520   -8.2960  -22.2640 C.3     1  UNL1        0.2560
     17  O        -24.4680   -7.5130  -23.1570 O.2     1  UNL1       -0.3370
     18  C        -25.5920   -8.0230  -23.7650 C.2     1  UNL1        0.1610
     19  C        -26.8120   -7.9050  -23.0880 C.2     1  UNL1       -0.0360
     20  C        -27.9980   -8.4030  -23.6550 C.2     1  UNL1       -0.0350
     21  C        -29.3060   -8.2780  -22.8870 C.3     1  UNL1        0.0850
     22  C        -27.9540   -9.0160  -24.9260 C.2     1  UNL1       -0.0350
     23  C        -26.7290   -9.1310  -25.6180 C.2     1  UNL1       -0.0350
     24 CL        -29.4320   -9.6350  -25.6510 Cl      1  UNL1       -0.1280
     25  C        -25.5510   -8.6340  -25.0300 C.2     1  UNL1       -0.0360
     26  C        -26.6620   -9.7870  -26.9910 C.3     1  UNL1        0.0850
@<TRIPOS>BOND
     1    26    23    1
     2    24    22    1
     3    23    25    1
     4    23    22    2
     5    25    18    2
     6    22    20    1
     7    18    17    1
     8    18    19    1
     9    20    19    2
    10    20    21    1
    11    17    16    1
    12    16    15    1
    13    12    11   ar
    14    15    14    1
    15     4     3    1
    16    11     2    1
    17    11    13   ar
    18     2     3   ar
    19     2     1   ar
    20     3     5   ar
    21     1    14    1
    22     1    10   ar
    23     5     6    2
    24     5    10   ar
    25     6     7    1
    26    10     9    2
    27     7     8    2
    28     9     8    1
########## Name: lig_58
########## Vina_BE: -5.485
########## MW: 385.136
########## clogP: 1.372
########## nonHatoms: 27
########## Vina_LE: -0.203
########## Vina_LipE: -6.857
########## Close_contacts: 0
########## Hydrophob_contacts: 11
########## HBonds: 0
########## Salt_Bridges: 0
########## Pi-Pi_Parallel: 0
########## Pi-Pi_Perpendicular: 0
########## Pi-Cation: 0
########## Halogen_Bonds: 0
@<TRIPOS>MOLECULE
lig_58.pdbqt
 27 29 0 0 0
SMALL
GASTEIGER

@<TRIPOS>ATOM
      1  C        -29.9220   -8.0590  -23.0000 C.ar    1  UNL1       -0.1800
      2  C        -30.7460   -7.0590  -23.6690 C.ar    1  UNL1        0.0600
      3  N        -29.9170   -6.1440  -24.3550 N.ar    1  UNL1       -0.0930
      4  C        -30.3320   -4.9910  -25.1690 C.3     1  UNL1        0.1810
      5  C        -28.6040   -6.5390  -24.1150 C.ar    1  UNL1       -0.0420
      6  C        -27.4170   -5.9350  -24.5650 C.2     1  UNL1        0.0010
      7  C        -26.1910   -6.5140  -24.1830 C.2     1  UNL1        0.0120
      8 CL        -24.6880   -5.7940  -24.7210 Cl      1  UNL1       -0.1500
      9  C        -26.1610   -7.6650  -23.3680 C.2     1  UNL1       -0.0410
     10  C        -27.3630   -8.2530  -22.9260 C.2     1  UNL1        0.0370
     11  C        -28.5730   -7.6640  -23.3190 C.ar    1  UNL1       -0.0650
     12  C        -32.2480   -6.9800  -23.6450 C.2     1  UNL1        0.8390
     13  O        -32.8650   -7.1320  -24.6880 O.co2   1  UNL1       -0.8140
     14  O        -32.8390   -6.7580  -22.5990 O.co2   1  UNL1       -0.8140
     15  C        -30.4490   -9.1900  -22.1530 C.3     1  UNL1        0.1100
     16  C        -30.8350   -8.7200  -20.7280 C.3     1  UNL1       -0.0230
     17  C        -29.7880   -9.1130  -19.6680 C.3     1  UNL1        0.2740
     18  O        -29.3210   -7.9200  -19.0070 O.2     1  UNL1       -0.3490
     19  C        -28.1970   -7.2720  -19.4570 C.2     1  UNL1        0.1360
     20  C        -28.2810   -6.0240  -20.0950 C.2     1  UNL1       -0.0030
     21  C        -27.1170   -5.3710  -20.5360 C.2     1  UNL1       -0.0420
     22  C        -27.2410   -4.0230  -21.2330 C.3     1  UNL1        0.0890
     23  C        -25.8580   -5.9730  -20.3220 C.2     1  UNL1       -0.0280
     24  C        -25.7680   -7.2200  -19.6640 C.2     1  UNL1       -0.0420
     25 CL        -24.3950   -5.1650  -20.8670 Cl      1  UNL1       -0.1370
     26  C        -26.9450   -7.8580  -19.2310 C.2     1  UNL1       -0.0030
     27  C        -24.4200   -7.8810  -19.4130 C.3     1  UNL1        0.0890
@<TRIPOS>BOND
     1     4     3    1
     2     8     7    1
     3    13    12   ar
     4     6     7    1
     5     6     5    2
     6     3     5   ar
     7     3     2   ar
     8     7     9    2
     9     5    11   ar
    10     2    12    1
    11     2     1   ar
    12    12    14   ar
    13     9    10    1
    14    11     1   ar
    15    11    10    2
    16     1    15    1
    17    15    16    1
    18    22    21    1
    19    25    23    1
    20    16    17    1
    21    21    23    2
    22    21    20    1
    23    23    24    1
    24    20    19    2
    25    17    18    1
    26    24    27    1
    27    24    26    2
    28    19    26    1
    29    19    18    1
########## Name: lig_60
########## Vina_BE: -5.386
########## MW: 355.73
########## clogP: 1.475
########## nonHatoms: 25
########## Vina_LE: -0.215
########## Vina_LipE: -6.861
########## Close_contacts: 0
########## Hydrophob_contacts: 13
########## HBonds: 0
########## Salt_Bridges: 0
########## Pi-Pi_Parallel: 0
########## Pi-Pi_Perpendicular: 0
########## Pi-Cation: 0
########## Halogen_Bonds: 0
@<TRIPOS>MOLECULE
lig_60.pdbqt
 25 27 0 0 0
SMALL
GASTEIGER

@<TRIPOS>ATOM
      1  C        -30.4450   -8.9760  -22.1980 C.3     1  UNL1        0.0980
      2  C        -29.9400   -7.8450  -23.0690 C.ar    1  UNL1       -0.1170
      3  C        -30.7800   -6.9440  -23.7380 C.ar    1  UNL1       -0.0730
      4  S        -29.8890   -5.7030  -24.6640 S.2     1  UNL1        0.0590
      5  C        -28.3670   -6.4520  -24.1790 C.ar    1  UNL1       -0.1180
      6  C        -27.0890   -6.0260  -24.5720 C.2     1  UNL1        0.0270
      7  C        -28.5420   -7.5460  -23.3510 C.ar    1  UNL1       -0.0690
      8  C        -25.9650   -6.7390  -24.1170 C.2     1  UNL1       -0.0420
      9  C        -26.1350   -7.8570  -23.2760 C.2     1  UNL1       -0.0390
     10  C        -27.4250   -8.2630  -22.8880 C.2     1  UNL1        0.0130
     11  C        -32.2700   -6.9230  -23.7560 C.2     1  UNL1        0.9090
     12  O        -32.9100   -6.7320  -22.7340 O.co2   1  UNL1       -0.8140
     13  O        -32.8220   -7.1380  -24.8240 O.co2   1  UNL1       -0.8140
     14  C        -30.8150   -8.5100  -20.7690 C.3     1  UNL1        0.0340
     15  C        -29.8690   -9.0610  -19.6830 C.3     1  UNL1        0.2510
     16  O        -29.2900   -7.9470  -18.9780 O.2     1  UNL1       -0.3350
     17  C        -28.1450   -7.3150  -19.4040 C.2     1  UNL1        0.1600
     18  C        -28.2800   -6.0680  -20.0230 C.2     1  UNL1       -0.0360
     19  C        -27.1510   -5.3720  -20.4900 C.2     1  UNL1       -0.0340
     20  C        -27.3330   -4.0270  -21.1810 C.3     1  UNL1        0.0860
     21  C        -25.8690   -5.9350  -20.3140 C.2     1  UNL1       -0.0340
     22  C        -25.7250   -7.1880  -19.6800 C.2     1  UNL1       -0.0340
     23 CL        -24.4480   -5.0710  -20.8860 Cl      1  UNL1       -0.1270
     24  C        -26.8660   -7.8740  -19.2290 C.2     1  UNL1       -0.0360
     25  C        -24.3490   -7.8110  -19.4790 C.3     1  UNL1        0.0860
@<TRIPOS>BOND
     1    13    11   ar
     2     4     5   ar
     3     4     3   ar
     4     6     5    2
     5     6     8    1
     6     5     7   ar
     7     8     9    2
     8    11     3    1
     9    11    12   ar
    10     3     2   ar
    11     7     2   ar
    12     7    10    2
    13     9    10    1
    14     2     1    1
    15     1    14    1
    16    20    19    1
    17    23    21    1
    18    14    15    1
    19    19    21    2
    20    19    18    1
    21    21    22    1
    22    18    17    2
    23    15    16    1
    24    22    25    1
    25    22    24    2
    26    17    24    1
    27    17    16    1
########## Name: lig_61
########## Vina_BE: -5.888
########## MW: 391.183
########## clogP: 2.165
########## nonHatoms: 26
########## Vina_LE: -0.226
########## Vina_LipE: -8.053
########## Close_contacts: 1
########## Hydrophob_contacts: 10
########## HBonds: 1
########## Salt_Bridges: 0
########## Pi-Pi_Parallel: 0
########## Pi-Pi_Perpendicular: 0
########## Pi-Cation: 0
########## Halogen_Bonds: 0
@<TRIPOS>MOLECULE
lig_61.pdbqt
 26 28 0 0 0
SMALL
GASTEIGER

@<TRIPOS>ATOM
      1  C        -24.1060   -3.2900  -19.4420 C.ar    1  UNL1       -0.1210
      2  C        -24.4750   -2.5590  -18.3020 C.ar    1  UNL1       -0.3280
      3  S        -26.1140   -1.8910  -18.3730 S.2     1  UNL1        0.2480
      4  C        -26.2830   -2.5380  -20.0050 C.ar    1  UNL1       -0.0670
      5  C        -27.4240   -2.3560  -20.8000 C.2     1  UNL1        0.0330
      6  C        -27.4390   -2.8820  -22.1010 C.2     1  UNL1       -0.0310
      7  C        -26.3100   -3.5640  -22.5870 C.2     1  UNL1       -0.0180
      8  C        -25.1690   -3.7400  -21.7800 C.2     1  UNL1        0.0490
      9 CL        -23.8150   -4.5600  -22.5370 Cl      1  UNL1       -0.1180
     10  C        -25.1660   -3.2290  -20.4570 C.ar    1  UNL1       -0.0270
     11  C        -23.6970   -2.2820  -17.0670 C.2     1  UNL1        0.9220
     12  O        -24.1350   -2.7590  -16.0340 O.co2   1  UNL1       -0.8090
     13  O        -22.6970   -1.5860  -17.0860 O.co2   1  UNL1       -0.8090
     14  C        -22.7910   -4.0370  -19.5030 C.3     1  UNL1        0.1020
     15  C        -22.8670   -5.4170  -18.8040 C.3     1  UNL1       -0.0120
     16  C        -23.1400   -6.5640  -19.7960 C.3     1  UNL1        0.2760
     17  O        -24.1140   -7.4590  -19.2220 O.2     1  UNL1       -0.3520
     18  C        -25.3670   -7.5690  -19.7740 C.2     1  UNL1        0.1360
     19  C        -26.4840   -7.8850  -18.9840 C.2     1  UNL1       -0.0060
     20  C        -27.7610   -7.9780  -19.5670 C.2     1  UNL1       -0.0400
     21  C        -28.9540   -8.3310  -18.6880 C.3     1  UNL1        0.0910
     22  C        -27.9140   -7.7390  -20.9510 C.2     1  UNL1       -0.0280
     23  C        -26.7930   -7.4020  -21.7410 C.2     1  UNL1       -0.0400
     24 CL        -29.5060   -7.8500  -21.6890 Cl      1  UNL1       -0.1390
     25  C        -25.5250   -7.3160  -21.1410 C.2     1  UNL1       -0.0060
     26  C        -26.9380   -7.1290  -23.2330 C.3     1  UNL1        0.0910
@<TRIPOS>BOND
     1    26    23    1
     2     7     6    2
     3     7     8    1
     4     9     8    1
     5     6     5    1
     6     8    10    2
     7    23    25    1
     8    23    22    2
     9    24    22    1
    10    25    18    2
    11    22    20    1
    12     5     4    2
    13    10     4   ar
    14    10     1   ar
    15     4     3   ar
    16    16    17    1
    17    16    15    1
    18    18    17    1
    19    18    19    1
    20    20    19    2
    21    20    21    1
    22    14     1    1
    23    14    15    1
    24     1     2   ar
    25     3     2   ar
    26     2    11    1
    27    13    11   ar
    28    11    12   ar
########## Name: lig_63
########## Vina_BE: -5.484
########## MW: 391.183
########## clogP: 2.239
########## nonHatoms: 26
########## Vina_LE: -0.211
########## Vina_LipE: -7.723
########## Close_contacts: 0
########## Hydrophob_contacts: 11
########## HBonds: 0
########## Salt_Bridges: 0
########## Pi-Pi_Parallel: 0
########## Pi-Pi_Perpendicular: 0
########## Pi-Cation: 0
########## Halogen_Bonds: 0
@<TRIPOS>MOLECULE
lig_63.pdbqt
 26 28 0 0 0
SMALL
GASTEIGER

@<TRIPOS>ATOM
      1  C        -30.0430   -7.9170  -23.0270 C.ar    1  UNL1       -0.1210
      2  C        -30.9310   -7.0300  -23.6490 C.ar    1  UNL1       -0.3280
      3  S        -30.1360   -5.8270  -24.6870 S.2     1  UNL1        0.2480
      4  C        -28.5680   -6.5060  -24.2380 C.ar    1  UNL1       -0.0670
      5  C        -27.3190   -6.0380  -24.6760 C.2     1  UNL1        0.0330
      6  C        -26.1550   -6.6790  -24.2140 C.2     1  UNL1       -0.1500
      7 CL        -24.5820   -6.1170  -24.7390 Cl      1  UNL1       -0.1180
      8  C        -26.2520   -7.7670  -23.3270 C.2     1  UNL1       -0.0270
      9  C        -27.5140   -8.2220  -22.9000 C.2     1  UNL1        0.1770
     10  C        -28.6720   -7.5790  -23.3710 C.ar    1  UNL1       -0.0270
     11  C        -32.4090   -6.9740  -23.5380 C.2     1  UNL1        0.9220
     12  O        -33.0380   -7.1470  -24.5670 O.co2   1  UNL1       -0.8090
     13  O        -32.9490   -6.7420  -22.4710 O.co2   1  UNL1       -0.8090
     14  C        -30.4940   -9.0420  -22.1260 C.3     1  UNL1        0.1020
     15  C        -30.7870   -8.5420  -20.6930 C.3     1  UNL1       -0.0120
     16  C        -29.7880   -9.1050  -19.6660 C.3     1  UNL1        0.2760
     17  O        -29.2460   -8.0120  -18.9020 O.2     1  UNL1       -0.3520
     18  C        -28.1560   -7.3310  -19.3770 C.2     1  UNL1        0.1360
     19  C        -26.8840   -7.8950  -19.2300 C.2     1  UNL1       -0.0060
     20  C        -25.7460   -7.2210  -19.7100 C.2     1  UNL1       -0.0400
     21  C        -24.3700   -7.8470  -19.5280 C.3     1  UNL1        0.0910
     22  C        -25.9010   -5.9720  -20.3510 C.2     1  UNL1       -0.0280
     23  C        -27.1840   -5.4040  -20.5060 C.2     1  UNL1       -0.0400
     24 CL        -24.4870   -5.1200  -20.9580 Cl      1  UNL1       -0.1390
     25  C        -28.3090   -6.0930  -20.0150 C.2     1  UNL1       -0.0060
     26  C        -27.3710   -4.0590  -21.1950 C.3     1  UNL1        0.0910
@<TRIPOS>BOND
     1     7     6    1
     2     3     4   ar
     3     3     2   ar
     4     5     4    2
     5     5     6    1
     6    12    11   ar
     7     4    10   ar
     8     6     8    2
     9     2    11    1
    10     2     1   ar
    11    11    13   ar
    12    10     1   ar
    13    10     9    2
    14     8     9    1
    15     1    14    1
    16    14    15    1
    17    26    23    1
    18    24    22    1
    19    15    16    1
    20    23    22    2
    21    23    25    1
    22    22    20    1
    23    25    18    2
    24    20    21    1
    25    20    19    2
    26    16    17    1
    27    18    19    1
    28    18    17    1
########## Name: lig_65
########## Vina_BE: -6.435
########## MW: 391.183
########## clogP: 2.165
########## nonHatoms: 26
########## Vina_LE: -0.247
########## Vina_LipE: -8.6
########## Close_contacts: 0
########## Hydrophob_contacts: 19
########## HBonds: 1
########## Salt_Bridges: 0
########## Pi-Pi_Parallel: 0
########## Pi-Pi_Perpendicular: 0
########## Pi-Cation: 0
########## Halogen_Bonds: 0
@<TRIPOS>MOLECULE
lig_65.pdbqt
 26 28 0 0 0
SMALL
GASTEIGER

@<TRIPOS>ATOM
      1  C        -30.4660   -8.0790  -23.1870 C.ar    1  UNL1       -0.1210
      2  C        -29.4020   -7.9970  -24.0930 C.ar    1  UNL1       -0.3280
      3  S        -29.7040   -6.8890  -25.4520 S.2     1  UNL1        0.2480
      4  C        -31.3210   -6.5670  -24.8080 C.ar    1  UNL1       -0.0670
      5  C        -32.2910   -5.7280  -25.3850 C.2     1  UNL1       -0.0920
      6 CL        -31.9690   -4.8570  -26.8720 Cl      1  UNL1       -0.1180
      7  C        -33.5400   -5.5940  -24.7540 C.2     1  UNL1       -0.0250
      8  C        -33.8070   -6.2980  -23.5640 C.2     1  UNL1       -0.0270
      9  C        -32.8240   -7.1350  -23.0000 C.2     1  UNL1        0.1770
     10  C        -31.5760   -7.2550  -23.6360 C.ar    1  UNL1       -0.0270
     11  C        -28.1010   -8.7090  -24.0580 C.2     1  UNL1        0.9220
     12  O        -27.2080   -8.1830  -23.4180 O.co2   1  UNL1       -0.8090
     13  O        -27.9450   -9.7550  -24.6650 O.co2   1  UNL1       -0.8090
     14  C        -30.4250   -8.9300  -21.9400 C.3     1  UNL1        0.1020
     15  C        -30.4020   -8.0630  -20.6600 C.3     1  UNL1       -0.0120
     16  C        -29.6430   -8.7470  -19.5080 C.3     1  UNL1        0.2760
     17  O        -28.9680   -7.7340  -18.7360 O.2     1  UNL1       -0.3520
     18  C        -28.0200   -6.9320  -19.3200 C.2     1  UNL1        0.1360
     19  C        -26.8610   -7.5250  -19.8320 C.2     1  UNL1       -0.0060
     20  C        -25.8690   -6.7390  -20.4460 C.2     1  UNL1       -0.0400
     21  C        -24.6090   -7.4040  -20.9830 C.3     1  UNL1        0.0910
     22  C        -26.0580   -5.3430  -20.5520 C.2     1  UNL1       -0.0280
     23  C        -27.2320   -4.7430  -20.0440 C.2     1  UNL1       -0.0400
     24 CL        -24.8290   -4.3480  -21.3200 Cl      1  UNL1       -0.1390
     25  C        -28.2090   -5.5470  -19.4290 C.2     1  UNL1       -0.0060
     26  C        -27.4560   -3.2410  -20.1510 C.3     1  UNL1        0.0910
@<TRIPOS>BOND
     1     6     5    1
     2     3     4   ar
     3     3     2   ar
     4     5     4    2
     5     5     7    1
     6     4    10   ar
     7     7     8    2
     8    13    11   ar
     9     2    11    1
    10     2     1   ar
    11    11    12   ar
    12    10     1   ar
    13    10     9    2
    14     8     9    1
    15     1    14    1
    16    14    15    1
    17    24    22    1
    18    21    20    1
    19    15    16    1
    20    22    20    2
    21    22    23    1
    22    20    19    1
    23    26    23    1
    24    23    25    2
    25    19    18    2
    26    16    17    1
    27    25    18    1
    28    18    17    1
########## Name: lig_67
########## Vina_BE: -6.445
########## MW: 339.665
########## clogP: 2.551
########## nonHatoms: 25
########## Vina_LE: -0.258
########## Vina_LipE: -8.996
########## Close_contacts: 1
########## Hydrophob_contacts: 13
########## HBonds: 1
########## Salt_Bridges: 0
########## Pi-Pi_Parallel: 0
########## Pi-Pi_Perpendicular: 0
########## Pi-Cation: 0
########## Halogen_Bonds: 0
@<TRIPOS>MOLECULE
lig_67.pdbqt
 25 27 0 0 0
SMALL
GASTEIGER

@<TRIPOS>ATOM
      1  C        -22.4040   -4.2440  -19.0920 C.3     1  UNL1        0.0980
      2  C        -23.5700   -3.3900  -18.6680 C.ar    1  UNL1       -0.2120
      3  C        -23.5980   -2.5380  -17.4900 C.ar    1  UNL1        0.0090
      4  O        -24.8010   -1.8660  -17.3840 O.2     1  UNL1        0.0590
      5  C        -25.5490   -2.2510  -18.4690 C.ar    1  UNL1       -0.1550
      6  C        -26.8430   -1.8280  -18.8000 C.2     1  UNL1        0.0130
      7  C        -24.8640   -3.1520  -19.2600 C.ar    1  UNL1       -0.0580
      8  C        -27.4340   -2.3470  -19.9700 C.2     1  UNL1       -0.0330
      9  C        -26.7310   -3.2680  -20.7800 C.2     1  UNL1       -0.0480
     10  C        -25.4290   -3.6790  -20.4270 C.2     1  UNL1        0.0180
     11  C        -22.5510   -2.3140  -16.4560 C.2     1  UNL1        0.9360
     12  O        -22.1380   -1.1860  -16.2300 O.co2   1  UNL1       -0.7970
     13  O        -22.1370   -3.2860  -15.8430 O.co2   1  UNL1       -0.7970
     14  C        -22.5810   -5.7250  -18.6710 C.3     1  UNL1       -0.0200
     15  C        -23.1150   -6.6070  -19.8150 C.3     1  UNL1        0.2790
     16  O        -24.1040   -7.5110  -19.2830 O.2     1  UNL1       -0.3530
     17  C        -25.3740   -7.5320  -19.8030 C.2     1  UNL1        0.1350
     18  C        -26.4770   -7.8840  -19.0080 C.2     1  UNL1       -0.0070
     19  C        -27.7730   -7.8850  -19.5520 C.2     1  UNL1       -0.0400
     20  C        -28.9490   -8.2770  -18.6680 C.3     1  UNL1        0.0930
     21  C        -27.9610   -7.5180  -20.9030 C.2     1  UNL1       -0.0270
     22  C        -26.8540   -7.1460  -21.6990 C.2     1  UNL1       -0.0400
     23 CL        -29.5770   -7.5140  -21.5950 Cl      1  UNL1       -0.1370
     24  C        -25.5650   -7.1540  -21.1370 C.2     1  UNL1       -0.0070
     25  C        -27.0370   -6.7370  -23.1550 C.3     1  UNL1        0.0930
@<TRIPOS>BOND
     1    25    22    1
     2    22    24    1
     3    22    21    2
     4    23    21    1
     5    24    17    2
     6    21    19    1
     7     9    10    2
     8     9     8    1
     9    10     7    1
    10     8     6    2
    11    15    16    1
    12    15    14    1
    13    17    16    1
    14    17    18    1
    15    19    18    2
    16    19    20    1
    17     7     2   ar
    18     7     5   ar
    19     1    14    1
    20     1     2    1
    21     6     5    1
    22     2     3   ar
    23     5     4   ar
    24     3     4   ar
    25     3    11    1
    26    11    12   ar
    27    11    13   ar
########## Name: ligand
########## Vina_BE: -6.847
########## MW: 373.704
########## clogP: 1.841
########## nonHatoms: 28
########## Vina_LE: -0.245
########## Vina_LipE: -8.688
########## Close_contacts: 0
########## Hydrophob_contacts: 14
########## HBonds: 0
########## Salt_Bridges: 0
########## Pi-Pi_Parallel: 0
########## Pi-Pi_Perpendicular: 0
########## Pi-Cation: 0
########## Halogen_Bonds: 1
@<TRIPOS>MOLECULE
ligand.pdbqt
 28 32 0 0 0
SMALL
GASTEIGER

@<TRIPOS>ATOM
      1  C        -33.5170   -6.4800  -23.7370 C.2     1  UNL1        0.0110
      2  C        -33.9180   -6.5510  -25.0870 C.2     1  UNL1        0.0120
      3  C        -33.0480   -7.0700  -26.0630 C.2     1  UNL1        0.0160
      4  C        -26.1940   -7.1710  -21.5300 C.2     1  UNL1        0.0190
      5  C        -25.9500   -7.3520  -20.1520 C.2     1  UNL1       -0.1150
      6  C        -27.0050   -7.7900  -19.3320 C.2     1  UNL1        0.0410
      7  C        -28.2670   -8.0570  -19.8830 C.2     1  UNL1       -0.0250
      8  C        -29.8680   -8.9690  -22.9550 C.3     1  UNL1        0.2580
      9  C        -29.0170   -6.7660  -23.9490 C.3     1  UNL1        0.3010
     10  C        -27.4600   -7.4160  -22.1100 C.2     1  UNL1        0.0750
     11  C        -28.4980   -7.8860  -21.2560 C.2     1  UNL1        0.0310
     12  C        -29.9710   -7.9740  -24.1370 C.3     1  UNL1       -0.0410
     13  C        -30.6960   -8.0980  -26.5340 C.3     1  UNL1        0.0590
     14  N        -27.6750   -7.1660  -23.4810 N.pl3   1  UNL1       -0.6510
     15  O        -29.7500   -8.2600  -21.7100 O.2     1  UNL1       -0.3510
     16  C        -31.7810   -7.5150  -25.6620 C.2     1  UNL1       -0.0810
     17  C        -31.3840   -7.4530  -24.3330 C.2     1  UNL1       -0.0680
     18  C        -32.2390   -6.9300  -23.3510 C.2     1  UNL1        0.0660
     19 CL        -35.5080   -5.9860  -25.5530 Cl      1  UNL1       -0.1220
     20  C        -29.7150   -8.7020  -25.4960 C.3     1  UNL1        0.0350
     21  C        -24.5810   -7.0750  -19.5660 C.2     1  UNL1        0.9090
     22  O        -24.0790   -7.9320  -18.8540 O.co2   1  UNL1       -0.8300
     23  O        -24.0430   -6.0130  -19.8370 O.co2   1  UNL1       -0.8300
     24  C        -26.5760   -6.9510  -24.4470 C.3     1  UNL1        0.3130
     25  C        -25.9390   -8.2640  -24.9470 C.3     1  UNL1       -0.0270
     26  C        -25.3400   -8.2760  -26.3930 C.3     1  UNL1        0.0090
     27  C        -24.3650   -9.3720  -25.8540 C.3     1  UNL1       -0.0210
     28  C        -24.4880   -8.6320  -24.4840 C.3     1  UNL1        0.0090
@<TRIPOS>BOND
     1    13    16    1
     2    13    20    1
     3    26    27    1
     4    26    25    1
     5     3    16    2
     6     3     2    1
     7    27    28    1
     8    16    17    1
     9    19     2    1
    10    20    12    1
    11     2     1    2
    12    25    28    1
    13    25    24    1
    14    24    14    1
    15    17    12    1
    16    17    18    2
    17    12     9    1
    18    12     8    1
    19     9    14    1
    20     1    18    1
    21    14    10    1
    22     8    15    1
    23    10     4    2
    24    10    11    1
    25    15    11    1
    26     4     5    1
    27    11     7    2
    28     5    21    1
    29     5     6    2
    30     7     6    1
    31    23    21   ar
    32    21    22   ar
