########## Name: lig_27
########## Vina_BE: -8.537
########## MW: 279.205
########## clogP: -0.331
########## nonHatoms: 23
########## Vina_LE: -0.371
########## Vina_LipE: -8.206
########## Close_contacts: 0
########## Hydrophob_contacts: 23
########## HBonds: 1
########## Salt_Bridges: 0
########## Pi-Pi_Parallel: 0
########## Pi-Pi_Perpendicular: 0
########## Pi-Cation: 0
########## Halogen_Bonds: 0
@<TRIPOS>MOLECULE
lig_27.pdbqt
 23 25 0 0 0
SMALL
GASTEIGER

@<TRIPOS>ATOM
      1  CA       -26.5510   -7.8530  -20.0840 C.ar    1  UNL1        0.0410
      2  N        -26.5540   -6.5360  -20.5420 N.ar    1  UNL1       -0.2150
      3  C        -27.8660   -6.1310  -20.4070 C.ar    1  UNL1       -0.0400
      4  C        -28.4250   -4.8910  -20.7360 C.2     1  UNL1       -0.0330
      5  C        -29.8060   -4.7150  -20.5140 C.2     1  UNL1       -0.0360
      6  C        -30.5850   -5.7670  -19.9810 C.2     1  UNL1       -0.0710
      7  C        -29.9950   -7.0080  -19.6600 C.2     1  UNL1        0.0250
      8  C        -28.6190   -7.1650  -19.8820 C.ar    1  UNL1       -0.0710
      9  C        -27.8010   -8.2600  -19.6680 C.ar    1  UNL1       -0.1800
     10  H        -25.7480   -6.0450  -20.8980 H       1  UNL1        0.3100
     11  C        -25.2960   -8.6670  -20.0870 C.2     1  UNL1        0.8430
     12  O        -24.4360   -8.3350  -19.2810 O.co2   1  UNL1       -0.8210
     13  OXT      -25.1440   -9.6000  -20.8640 O.co2   1  UNL1       -0.8210
     14  C        -28.1980   -9.6120  -19.1080 C.3     1  UNL1        0.1040
     15  C        -28.8160  -10.5150  -20.2020 C.3     1  UNL1       -0.0260
     16  C        -30.3590  -10.5850  -20.1480 C.3     1  UNL1        0.2820
     17  O        -30.8350  -10.3580  -18.8010 O.2     1  UNL1       -0.3520
     18  C        -32.1250  -10.6180  -18.3950 C.2     1  UNL1        0.1340
     19  C        -32.4420  -10.9380  -17.0620 C.2     1  UNL1       -0.0120
     20  C        -33.7720  -11.2110  -16.7020 C.2     1  UNL1        0.0100
     21  C        -34.7850  -11.1810  -17.6760 C.2     1  UNL1       -0.0710
     22  C        -34.4680  -10.8780  -19.0100 C.2     1  UNL1        0.0100
     23  C        -33.1370  -10.6010  -19.3660 C.2     1  UNL1       -0.0120
@<TRIPOS>BOND
     1    10     2    1
     2    13    11   ar
     3     4     5    1
     4     4     3    2
     5     2     3   ar
     6     2     1   ar
     7     5     6    2
     8     3     8   ar
     9    15    16    1
    10    15    14    1
    11    16    17    1
    12    11     1    1
    13    11    12   ar
    14     1     9   ar
    15     6     7    1
    16     8     9   ar
    17     8     7    2
    18     9    14    1
    19    23    22    1
    20    23    18    2
    21    22    21    2
    22    17    18    1
    23    18    19    1
    24    21    20    1
    25    19    20    2
########## Name: lig_28
########## Vina_BE: -8.808
########## MW: 291.216
########## clogP: -0.176
########## nonHatoms: 24
########## Vina_LE: -0.367
########## Vina_LipE: -8.632
########## Close_contacts: 0
########## Hydrophob_contacts: 20
########## HBonds: 1
########## Salt_Bridges: 0
########## Pi-Pi_Parallel: 0
########## Pi-Pi_Perpendicular: 0
########## Pi-Cation: 0
########## Halogen_Bonds: 0
@<TRIPOS>MOLECULE
lig_28.pdbqt
 24 26 0 0 0
SMALL
GASTEIGER

@<TRIPOS>ATOM
      1  C        -27.8730   -8.1160  -19.6560 C.ar    1  UNL1       -0.1860
      2  CA       -26.5310   -7.7570  -20.0820 C.ar    1  UNL1        0.0480
      3  N        -26.4990   -6.4240  -20.5040 N.ar    1  UNL1       -0.2140
      4  C        -27.7820   -5.9260  -20.3690 C.ar    1  UNL1       -0.0430
      5  C        -28.2360   -4.6370  -20.6730 C.2     1  UNL1       -0.0330
      6  C        -29.6010   -4.3540  -20.4650 C.2     1  UNL1       -0.0390
      7  C        -30.4720   -5.3520  -19.9710 C.2     1  UNL1       -0.0730
      8  C        -29.9870   -6.6420  -19.6770 C.2     1  UNL1        0.0200
      9  C        -28.6260   -6.9010  -19.8790 C.ar    1  UNL1       -0.0730
     10  H        -25.6690   -5.9630  -20.8450 H       1  UNL1        0.3100
     11  C        -25.2970   -8.5950  -20.1040 C.2     1  UNL1        0.8380
     12  OXT      -24.4560   -8.4980  -19.2250 O.co2   1  UNL1       -0.8150
     13  O        -25.1870   -9.3700  -21.0450 O.co2   1  UNL1       -0.8150
     14  C        -28.2670   -9.4500  -19.0730 C.3     1  UNL1        0.0980
     15  C        -28.5510  -10.5160  -20.1600 C.3     1  UNL1        0.0250
     16  C        -30.0460  -10.8730  -20.3330 C.3     1  UNL1        0.2440
     17  O        -30.8770   -9.9540  -19.5940 O.2     1  UNL1       -0.3680
     18  C        -31.9290  -10.4030  -18.8310 C.2     1  UNL1        0.1200
     19  C        -31.6980  -10.7000  -17.4800 C.2     1  UNL1        0.0070
     20  C        -32.7480  -11.1550  -16.6650 C.2     1  UNL1       -0.0080
     21  C        -34.0370  -11.2970  -17.2050 C.2     1  UNL1       -0.0310
     22  C        -34.2750  -10.9790  -18.5520 C.2     1  UNL1       -0.0040
     23  C        -33.2260  -10.5240  -19.3750 C.2     1  UNL1       -0.0960
     24  C        -33.5090  -10.1870  -20.8330 C.3     1  UNL1        0.0900
@<TRIPOS>BOND
     1    13    11   ar
     2    10     3    1
     3    24    23    1
     4     5     6    1
     5     5     4    2
     6     3     4   ar
     7     3     2   ar
     8     6     7    2
     9     4     9   ar
    10    16    15    1
    11    16    17    1
    12    15    14    1
    13    11     2    1
    14    11    12   ar
    15     2     1   ar
    16     7     8    1
    17     9     8    2
    18     9     1   ar
    19     1    14    1
    20    17    18    1
    21    23    18    2
    22    23    22    1
    23    18    19    1
    24    22    21    2
    25    19    20    2
    26    21    20    1
########## Name: lig_30
########## Vina_BE: -8.987
########## MW: 291.216
########## clogP: -0.176
########## nonHatoms: 24
########## Vina_LE: -0.374
########## Vina_LipE: -8.811
########## Close_contacts: 1
########## Hydrophob_contacts: 31
########## HBonds: 1
########## Salt_Bridges: 0
########## Pi-Pi_Parallel: 0
########## Pi-Pi_Perpendicular: 0
########## Pi-Cation: 0
########## Halogen_Bonds: 0
@<TRIPOS>MOLECULE
lig_30.pdbqt
 24 26 0 0 0
SMALL
GASTEIGER

@<TRIPOS>ATOM
      1  C        -27.6510   -8.1000  -19.7110 C.ar    1  UNL1       -0.1930
      2  CA       -26.4190   -7.6810  -20.2330 C.ar    1  UNL1       -0.0370
      3  N        -26.5990   -6.3960  -20.7740 N.ar    1  UNL1       -0.2140
      4  C        -27.9120   -6.0180  -20.5940 C.ar    1  UNL1       -0.0420
      5  C        -28.5340   -4.8210  -20.9670 C.2     1  UNL1       -0.0300
      6  C        -29.9030   -4.6730  -20.6630 C.2     1  UNL1       -0.0380
      7  C        -30.6050   -5.7090  -20.0070 C.2     1  UNL1       -0.0670
      8  C        -29.9470   -6.9040  -19.6450 C.2     1  UNL1        0.0130
      9  C        -28.5850   -7.0250  -19.9560 C.ar    1  UNL1       -0.0730
     10  H        -25.8570   -5.8710  -21.2120 H       1  UNL1        0.3100
     11  C        -25.1050   -8.3890  -20.2530 C.2     1  UNL1        0.9270
     12  OXT      -24.1470   -7.9560  -19.6340 O.co2   1  UNL1       -0.8140
     13  O        -25.0580   -9.4110  -20.9240 O.co2   1  UNL1       -0.8140
     14  C        -27.8950   -9.4130  -19.0070 C.3     1  UNL1        0.0990
     15  C        -28.3210  -10.5400  -19.9750 C.3     1  UNL1        0.0220
     16  C        -29.8450  -10.5490  -20.2430 C.3     1  UNL1        0.2540
     17  O        -30.5640  -10.3320  -19.0110 O.2     1  UNL1       -0.3400
     18  C        -31.9240  -10.5120  -18.8670 C.2     1  UNL1        0.1530
     19  C        -32.7250  -10.3460  -20.0050 C.2     1  UNL1       -0.0370
     20  C        -34.1160  -10.5260  -19.9290 C.2     1  UNL1        0.0140
     21  C        -34.7090  -10.8790  -18.7070 C.2     1  UNL1       -0.0660
     22  C        -33.9170  -11.0510  -17.5580 C.2     1  UNL1       -0.0450
     23  C        -34.5530  -11.4360  -16.2340 C.3     1  UNL1        0.0690
     24  C        -32.5250  -10.8710  -17.6430 C.2     1  UNL1       -0.0500
@<TRIPOS>BOND
     1    10     3    1
     2     5     6    1
     3     5     4    2
     4    13    11   ar
     5     3     4   ar
     6     3     2   ar
     7     6     7    2
     8     4     9   ar
     9    11     2    1
    10    11    12   ar
    11    16    15    1
    12    16    17    1
    13     2     1   ar
    14     7     8    1
    15    19    20    1
    16    19    18    2
    17    15    14    1
    18     9     1   ar
    19     9     8    2
    20    20    21    2
    21     1    14    1
    22    17    18    1
    23    18    24    1
    24    21    22    1
    25    24    22    2
    26    22    23    1
########## Name: lig_31
########## Vina_BE: -9.431
########## MW: 348.211
########## clogP: 2.342
########## nonHatoms: 27
########## Vina_LE: -0.349
########## Vina_LipE: -11.773
########## Close_contacts: 0
########## Hydrophob_contacts: 25
########## HBonds: 2
########## Salt_Bridges: 0
########## Pi-Pi_Parallel: 0
########## Pi-Pi_Perpendicular: 0
########## Pi-Cation: 0
########## Halogen_Bonds: 0
@<TRIPOS>MOLECULE
lig_31.pdbqt
 27 29 0 0 0
SMALL
GASTEIGER

@<TRIPOS>ATOM
      1  C        -27.8030   -8.9490  -18.9970 C.3     1  UNL1        0.1040
      2  C        -27.6120   -7.6670  -19.7730 C.ar    1  UNL1       -0.1820
      3  C        -28.5940   -6.6320  -20.0030 C.ar    1  UNL1       -0.0710
      4  C        -29.9400   -6.5490  -19.6200 C.2     1  UNL1        0.0250
      5  C        -27.9970   -5.6230  -20.7100 C.ar    1  UNL1       -0.0390
      6  C        -30.6630   -5.3940  -19.9850 C.2     1  UNL1       -0.0680
      7  C        -30.0380   -4.3560  -20.7130 C.2     1  UNL1       -0.0330
      8  C        -28.6830   -4.4630  -21.0860 C.2     1  UNL1       -0.0310
      9  N        -26.6830   -5.9600  -20.9460 N.ar    1  UNL1       -0.2140
     10  CA       -26.4230   -7.2160  -20.3690 C.ar    1  UNL1       -0.0480
     11  H        -25.9820   -5.4200  -21.4330 H       1  UNL1        0.3110
     12  C        -25.0770   -7.8580  -20.4430 C.2     1  UNL1        0.9330
     13  OXT      -24.7390   -8.2720  -21.5410 O.co2   1  UNL1       -0.8230
     14  O        -24.3850   -7.9910  -19.4480 O.co2   1  UNL1       -0.8230
     15  C        -27.7920  -10.1950  -19.9110 C.3     1  UNL1       -0.0240
     16  C        -29.1720  -10.8880  -20.0210 C.3     1  UNL1        0.2880
     17  O        -30.1150  -10.2290  -19.1460 O.2     1  UNL1       -0.3460
     18  C        -31.4740  -10.2990  -19.3600 C.2     1  UNL1        0.1330
     19  C        -32.0520   -9.8580  -20.5610 C.2     1  UNL1        0.0660
     20  C        -33.4370   -9.9690  -20.7550 C.2     1  UNL1        0.0390
     21  C        -34.2470  -10.5190  -19.7460 C.2     1  UNL1       -0.0020
     22  C        -33.6800  -10.9610  -18.5320 C.2     1  UNL1       -0.1540
     23  C        -32.2860  -10.8330  -18.3480 C.2     1  UNL1        0.0190
     24  C        -34.5670  -11.5550  -17.4320 C.3     1  UNL1        0.6870
     25  F        -34.9380  -12.8200  -17.7230 F       1  UNL1       -0.2490
     26  F        -33.9430  -11.6020  -16.2330 F       1  UNL1       -0.2490
     27  F        -35.7070  -10.8530  -17.2370 F       1  UNL1       -0.2490
@<TRIPOS>BOND
     1    13    12   ar
     2    11     9    1
     3     8     7    2
     4     8     5    1
     5     9     5   ar
     6     9    10   ar
     7    20    19    1
     8    20    21    2
     9     7     6    1
    10     5     3   ar
    11    19    18    2
    12    12    10    1
    13    12    14   ar
    14    10     2   ar
    15    16    15    1
    16    16    17    1
    17     3     2   ar
    18     3     4    1
    19     6     4    2
    20    15     1    1
    21     2     1    1
    22    21    22    1
    23    18    17    1
    24    18    23    1
    25    22    23    2
    26    22    24    1
    27    25    24    1
    28    24    27    1
    29    24    26    1
########## Name: lig_32
########## Vina_BE: -8.931
########## MW: 291.216
########## clogP: -0.176
########## nonHatoms: 24
########## Vina_LE: -0.372
########## Vina_LipE: -8.755
########## Close_contacts: 1
########## Hydrophob_contacts: 25
########## HBonds: 2
########## Salt_Bridges: 0
########## Pi-Pi_Parallel: 0
########## Pi-Pi_Perpendicular: 0
########## Pi-Cation: 0
########## Halogen_Bonds: 0
@<TRIPOS>MOLECULE
lig_32.pdbqt
 24 26 0 0 0
SMALL
GASTEIGER

@<TRIPOS>ATOM
      1  C        -27.7570   -7.8720  -19.8160 C.ar    1  UNL1       -0.1930
      2  CA       -26.4820   -7.5060  -20.2660 C.ar    1  UNL1       -0.0370
      3  N        -26.5380   -6.1550  -20.6610 N.ar    1  UNL1       -0.2140
      4  C        -27.8120   -5.6810  -20.4380 C.ar    1  UNL1       -0.0430
      5  C        -28.3130   -4.3900  -20.6460 C.2     1  UNL1       -0.0300
      6  C        -29.6620   -4.1510  -20.3120 C.2     1  UNL1       -0.0380
      7  C        -30.4640   -5.1900  -19.7860 C.2     1  UNL1       -0.0670
      8  C        -29.9270   -6.4790  -19.5910 C.2     1  UNL1        0.0140
      9  C        -28.5850   -6.6910  -19.9310 C.ar    1  UNL1       -0.0720
     10  H        -25.7430   -5.6500  -21.0200 H       1  UNL1        0.3100
     11  C        -25.2280   -8.3140  -20.3370 C.2     1  UNL1        0.9270
     12  OXT      -24.6410   -8.6560  -19.3230 O.co2   1  UNL1       -0.8150
     13  O        -24.8270   -8.5810  -21.4610 O.co2   1  UNL1       -0.8150
     14  C        -28.1290   -9.2250  -19.2610 C.3     1  UNL1        0.0980
     15  C        -28.2360  -10.3030  -20.3640 C.3     1  UNL1        0.0230
     16  C        -29.6660  -10.8560  -20.5360 C.3     1  UNL1        0.2520
     17  O        -30.6000   -9.9010  -19.9960 O.2     1  UNL1       -0.3390
     18  C        -31.6130  -10.2970  -19.1560 C.2     1  UNL1        0.1480
     19  C        -31.3920  -10.5200  -17.7860 C.2     1  UNL1       -0.0390
     20  C        -32.4560  -10.9080  -16.9560 C.2     1  UNL1        0.0230
     21  C        -33.7480  -11.0740  -17.4880 C.2     1  UNL1       -0.1370
     22  C        -34.8970  -11.4960  -16.5870 C.3     1  UNL1        0.0600
     23  C        -33.9660  -10.8410  -18.8590 C.2     1  UNL1        0.0230
     24  C        -32.9010  -10.4490  -19.6860 C.2     1  UNL1       -0.0390
@<TRIPOS>BOND
     1    13    11   ar
     2    10     3    1
     3     3     4   ar
     4     3     2   ar
     5     5     4    2
     6     5     6    1
     7    16    15    1
     8    16    17    1
     9     4     9   ar
    10    15    14    1
    11    11     2    1
    12    11    12   ar
    13     6     7    2
    14     2     1   ar
    15    17    18    1
    16     9     1   ar
    17     9     8    2
    18     1    14    1
    19     7     8    1
    20    24    18    2
    21    24    23    1
    22    18    19    1
    23    23    21    2
    24    19    20    2
    25    21    20    1
    26    21    22    1
########## Name: lig_33
########## Vina_BE: -8.696
########## MW: 314.658
########## clogP: 0.432
########## nonHatoms: 24
########## Vina_LE: -0.362
########## Vina_LipE: -9.128
########## Close_contacts: 1
########## Hydrophob_contacts: 20
########## HBonds: 2
########## Salt_Bridges: 0
########## Pi-Pi_Parallel: 0
########## Pi-Pi_Perpendicular: 0
########## Pi-Cation: 0
########## Halogen_Bonds: 0
@<TRIPOS>MOLECULE
lig_33.pdbqt
 24 26 0 0 0
SMALL
GASTEIGER

@<TRIPOS>ATOM
      1  CA       -26.4610   -7.5160  -20.2310 C.ar    1  UNL1       -0.0480
      2  N        -26.5630   -6.1870  -20.6800 N.ar    1  UNL1       -0.2140
      3  C        -27.8580   -5.7520  -20.4930 C.ar    1  UNL1       -0.0400
      4  C        -28.4140   -4.5060  -20.8050 C.2     1  UNL1       -0.0310
      5  C        -29.7800   -4.3100  -20.5180 C.2     1  UNL1       -0.0350
      6  C        -30.5460   -5.3480  -19.9370 C.2     1  UNL1       -0.0700
      7  C        -29.9530   -6.5940  -19.6370 C.2     1  UNL1        0.0250
      8  C        -28.5930   -6.7610  -19.9310 C.ar    1  UNL1       -0.0710
      9  C        -27.7210   -7.8980  -19.7470 C.ar    1  UNL1       -0.1810
     10  H        -25.7890   -5.6770  -21.0800 H       1  UNL1        0.3100
     11  C        -25.1970   -8.3070  -20.3040 C.2     1  UNL1        0.9320
     12  O        -24.8270   -8.6260  -21.4240 O.co2   1  UNL1       -0.8210
     13  OXT      -24.5860   -8.6240  -19.2920 O.co2   1  UNL1       -0.8210
     14  C        -28.0290   -9.2570  -19.1760 C.3     1  UNL1        0.1060
     15  C        -28.1430  -10.3310  -20.2840 C.3     1  UNL1       -0.0250
     16  C        -29.5680  -10.9000  -20.4650 C.3     1  UNL1        0.2840
     17  O        -30.5600   -9.9630  -19.9850 O.2     1  UNL1       -0.3480
     18  C        -31.5980  -10.3030  -19.1440 C.2     1  UNL1        0.1390
     19  C        -32.8690  -10.4750  -19.7110 C.2     1  UNL1        0.0010
     20  C        -33.9600  -10.8500  -18.9100 C.2     1  UNL1        0.0380
     21  C        -33.7760  -11.0610  -17.5340 C.2     1  UNL1       -0.0310
     22 CL        -35.1340  -11.5310  -16.5330 Cl      1  UNL1       -0.1370
     23  C        -32.5040  -10.8990  -16.9610 C.2     1  UNL1        0.0380
     24  C        -31.4120  -10.5290  -17.7660 C.2     1  UNL1        0.0010
@<TRIPOS>BOND
     1    12    11   ar
     2    10     2    1
     3     4     5    1
     4     4     3    2
     5     2     3   ar
     6     2     1   ar
     7     5     6    2
     8     3     8   ar
     9    16    15    1
    10    16    17    1
    11    11     1    1
    12    11    13   ar
    13    15    14    1
    14     1     9   ar
    15    17    18    1
    16     6     7    1
    17     8     9   ar
    18     8     7    2
    19     9    14    1
    20    19    18    2
    21    19    20    1
    22    18    24    1
    23    20    21    2
    24    24    23    2
    25    21    23    1
    26    21    22    1
########## Name: lig_34
########## Vina_BE: -9.496
########## MW: 348.211
########## clogP: 2.342
########## nonHatoms: 27
########## Vina_LE: -0.352
########## Vina_LipE: -11.838
########## Close_contacts: 1
########## Hydrophob_contacts: 21
########## HBonds: 2
########## Salt_Bridges: 0
########## Pi-Pi_Parallel: 0
########## Pi-Pi_Perpendicular: 0
########## Pi-Cation: 0
########## Halogen_Bonds: 1
@<TRIPOS>MOLECULE
lig_34.pdbqt
 27 29 0 0 0
SMALL
GASTEIGER

@<TRIPOS>ATOM
      1  C        -27.8260   -8.8280  -19.0590 C.3     1  UNL1        0.1040
      2  C        -27.5780   -7.5190  -19.7720 C.ar    1  UNL1       -0.1820
      3  C        -28.5070   -6.4240  -19.9380 C.ar    1  UNL1       -0.0710
      4  C        -29.8420   -6.2900  -19.5340 C.2     1  UNL1        0.0250
      5  C        -27.8620   -5.4130  -20.5960 C.ar    1  UNL1       -0.0390
      6  C        -30.5050   -5.0800  -19.8250 C.2     1  UNL1       -0.0680
      7  C        -29.8320   -4.0380  -20.5020 C.2     1  UNL1       -0.0330
      8  C        -28.4880   -4.1970  -20.8980 C.2     1  UNL1       -0.0310
      9  N        -26.5690   -5.8030  -20.8640 N.ar    1  UNL1       -0.2140
     10  CA       -26.3700   -7.1000  -20.3530 C.ar    1  UNL1       -0.0480
     11  H        -25.8440   -5.2750  -21.3250 H       1  UNL1        0.3110
     12  C        -25.0610   -7.8070  -20.4690 C.2     1  UNL1        0.9330
     13  OXT      -24.7800   -8.2400  -21.5760 O.co2   1  UNL1       -0.8230
     14  O        -24.3430   -7.9720  -19.4960 O.co2   1  UNL1       -0.8230
     15  C        -27.5650  -10.0520  -19.9660 C.3     1  UNL1       -0.0240
     16  C        -28.8550  -10.8220  -20.3480 C.3     1  UNL1        0.2880
     17  O        -29.9780   -9.9110  -20.3570 O.2     1  UNL1       -0.3460
     18  C        -31.1600  -10.1990  -19.7070 C.2     1  UNL1        0.1330
     19  C        -32.3920  -10.2410  -20.3790 C.2     1  UNL1        0.0660
     20  C        -33.5670  -10.5730  -19.6830 C.2     1  UNL1        0.0390
     21  C        -33.5270  -10.8600  -18.3010 C.2     1  UNL1       -0.1370
     22  C        -32.2860  -10.8010  -17.6330 C.2     1  UNL1       -0.0190
     23  C        -31.1140  -10.4670  -18.3320 C.2     1  UNL1        0.0190
     24  C        -34.7940  -11.2440  -17.5260 C.3     1  UNL1        0.6870
     25  F        -35.0380  -12.5730  -17.5910 F       1  UNL1       -0.2490
     26  F        -34.7430  -10.9320  -16.2120 F       1  UNL1       -0.2490
     27  F        -35.8870  -10.6300  -18.0290 F       1  UNL1       -0.2490
@<TRIPOS>BOND
     1    13    12   ar
     2    11     9    1
     3     8     5    1
     4     8     7    2
     5     9     5   ar
     6     9    10   ar
     7     5     3   ar
     8     7     6    1
     9    12    10    1
    10    12    14   ar
    11    19    18    2
    12    19    20    1
    13    17    16    1
    14    17    18    1
    15    10     2   ar
    16    16    15    1
    17    15     1    1
    18     3     2   ar
    19     3     4    1
    20     6     4    2
    21     2     1    1
    22    18    23    1
    23    20    21    2
    24    23    22    2
    25    21    22    1
    26    21    24    1
    27    27    24    1
    28    25    24    1
    29    24    26    1
########## Name: lig_35
########## Vina_BE: -8.701
########## MW: 326.669
########## clogP: 0.587
########## nonHatoms: 25
########## Vina_LE: -0.348
########## Vina_LipE: -9.288
########## Close_contacts: 1
########## Hydrophob_contacts: 23
########## HBonds: 2
########## Salt_Bridges: 0
########## Pi-Pi_Parallel: 0
########## Pi-Pi_Perpendicular: 0
########## Pi-Cation: 0
########## Halogen_Bonds: 0
@<TRIPOS>MOLECULE
lig_35.pdbqt
 25 27 0 0 0
SMALL
GASTEIGER

@<TRIPOS>ATOM
      1  C        -27.3090   -7.5160  -19.9720 C.ar    1  UNL1       -0.1950
      2  CA       -26.2790   -6.9920  -20.7670 C.ar    1  UNL1       -0.0370
      3  N        -26.7390   -5.7820  -21.3170 N.ar    1  UNL1       -0.2140
      4  C        -28.0120   -5.5360  -20.8500 C.ar    1  UNL1       -0.0420
      5  C        -28.8330   -4.4290  -21.0960 C.2     1  UNL1       -0.0290
      6  C        -30.0940   -4.4000  -20.4660 C.2     1  UNL1       -0.0370
      7  C        -30.4940   -5.4570  -19.6160 C.2     1  UNL1       -0.0660
      8  C        -29.6400   -6.5570  -19.3910 C.2     1  UNL1        0.0110
      9  C        -28.3950   -6.5660  -20.0330 C.ar    1  UNL1       -0.0740
     10  H        -26.1780   -5.2030  -21.9240 H       1  UNL1        0.3110
     11  C        -24.9090   -7.5280  -21.0240 C.2     1  UNL1        0.9270
     12  OXT      -24.6010   -7.9730  -22.1180 O.co2   1  UNL1       -0.8140
     13  O        -24.1450   -7.5220  -20.0690 O.co2   1  UNL1       -0.8140
     14  C        -27.2260   -8.7950  -19.1730 C.3     1  UNL1        0.0980
     15  C        -27.4280  -10.0480  -20.0560 C.3     1  UNL1        0.0260
     16  C        -28.8880  -10.5440  -20.0720 C.3     1  UNL1        0.2600
     17  O        -29.5740   -9.9910  -18.9330 O.2     1  UNL1       -0.3380
     18  C        -30.8780  -10.3000  -18.6150 C.2     1  UNL1        0.1580
     19  C        -31.8120  -10.3110  -19.6600 C.2     1  UNL1       -0.0400
     20  C        -33.1660  -10.6070  -19.4150 C.2     1  UNL1       -0.0300
     21  C        -34.1640  -10.6000  -20.5650 C.3     1  UNL1        0.0910
     22  C        -33.5780  -10.8980  -18.0980 C.2     1  UNL1       -0.0360
     23  C        -32.6470  -10.8860  -17.0470 C.2     1  UNL1        0.0390
     24 CL        -35.2520  -11.2760  -17.7310 Cl      1  UNL1       -0.1280
     25  C        -31.2980  -10.5870  -17.3020 C.2     1  UNL1       -0.0260
@<TRIPOS>BOND
     1    12    11   ar
     2    10     3    1
     3     3     4   ar
     4     3     2   ar
     5     5     4    2
     6     5     6    1
     7    11     2    1
     8    11    13   ar
     9     4     9   ar
    10     2     1   ar
    11    21    20    1
    12     6     7    2
    13    16    15    1
    14    16    17    1
    15    15    14    1
    16     9     1   ar
    17     9     8    2
    18     1    14    1
    19    19    20    1
    20    19    18    2
    21     7     8    1
    22    20    22    2
    23    17    18    1
    24    18    25    1
    25    22    24    1
    26    22    23    1
    27    25    23    2
########## Name: lig_36
########## Vina_BE: -8.537
########## MW: 338.68
########## clogP: 0.668
########## nonHatoms: 26
########## Vina_LE: -0.328
########## Vina_LipE: -9.205
########## Close_contacts: 2
########## Hydrophob_contacts: 28
########## HBonds: 2
########## Salt_Bridges: 0
########## Pi-Pi_Parallel: 0
########## Pi-Pi_Perpendicular: 0
########## Pi-Cation: 0
########## Halogen_Bonds: 0
@<TRIPOS>MOLECULE
lig_36.pdbqt
 26 28 0 0 0
SMALL
GASTEIGER

@<TRIPOS>ATOM
      1  C        -27.3200   -7.6070  -19.9250 C.ar    1  UNL1       -0.1820
      2  CA       -26.2530   -7.0150  -20.7180 C.ar    1  UNL1        0.0400
      3  N        -26.6720   -5.7930  -21.2540 N.ar    1  UNL1       -0.2140
      4  C        -27.9690   -5.5860  -20.8290 C.ar    1  UNL1       -0.0400
      5  C        -28.7980   -4.4940  -21.1140 C.2     1  UNL1       -0.0310
      6  C        -30.0980   -4.4960  -20.5680 C.2     1  UNL1       -0.0350
      7  C        -30.5350   -5.5710  -19.7610 C.2     1  UNL1       -0.0700
      8  C        -29.6780   -6.6580  -19.4910 C.2     1  UNL1        0.0250
      9  C        -28.3900   -6.6380  -20.0420 C.ar    1  UNL1       -0.0700
     10  H        -26.0910   -5.2100  -21.8380 H       1  UNL1        0.3100
     11  C        -24.8810   -7.5280  -20.9990 C.2     1  UNL1        0.8430
     12  O        -24.5580   -7.8790  -22.1210 O.co2   1  UNL1       -0.8210
     13  OXT      -24.1010   -7.5360  -20.0570 O.co2   1  UNL1       -0.8210
     14  C        -27.2590   -8.9190  -19.1780 C.3     1  UNL1        0.1050
     15  C        -27.5610  -10.1260  -20.0970 C.3     1  UNL1       -0.0250
     16  C        -29.0240  -10.6030  -19.9990 C.3     1  UNL1        0.2860
     17  O        -29.5750  -10.0960  -18.7670 O.2     1  UNL1       -0.3480
     18  C        -30.8620  -10.4050  -18.4090 C.2     1  UNL1        0.1410
     19  C        -31.8470  -10.4840  -19.4040 C.2     1  UNL1       -0.0340
     20  C        -33.1820  -10.7830  -19.0720 C.2     1  UNL1       -0.0570
     21  C        -33.5220  -10.9900  -17.7170 C.2     1  UNL1       -0.0260
     22  C        -32.5360  -10.8950  -16.7190 C.2     1  UNL1        0.0580
     23 CL        -35.1660  -11.3490  -17.2200 Cl      1  UNL1       -0.1370
     24  C        -31.2060  -10.5990  -17.0640 C.2     1  UNL1        0.0360
     25  C        -34.2240  -10.8550  -20.1850 C.3     1  UNL1        0.0570
     26  C        -33.9360   -9.8450  -21.3120 C.3     1  UNL1        0.0110
@<TRIPOS>BOND
     1    12    11   ar
     2    10     3    1
     3    26    25    1
     4     3     4   ar
     5     3     2   ar
     6     5     4    2
     7     5     6    1
     8    11     2    1
     9    11    13   ar
    10     4     9   ar
    11     2     1   ar
    12     6     7    2
    13    25    20    1
    14    15    16    1
    15    15    14    1
    16     9     1   ar
    17     9     8    2
    18    16    17    1
    19     1    14    1
    20     7     8    1
    21    19    20    1
    22    19    18    2
    23    20    21    2
    24    17    18    1
    25    18    24    1
    26    21    23    1
    27    21    22    1
    28    24    22    2
########## Name: lig_37
########## Vina_BE: -8.824
########## MW: 338.68
########## clogP: 0.742
########## nonHatoms: 26
########## Vina_LE: -0.339
########## Vina_LipE: -9.566
########## Close_contacts: 0
########## Hydrophob_contacts: 24
########## HBonds: 2
########## Salt_Bridges: 0
########## Pi-Pi_Parallel: 0
########## Pi-Pi_Perpendicular: 0
########## Pi-Cation: 0
########## Halogen_Bonds: 0
@<TRIPOS>MOLECULE
lig_37.pdbqt
 26 28 0 0 0
SMALL
GASTEIGER

@<TRIPOS>ATOM
      1  C        -27.5680   -7.5550  -19.6780 C.ar    1  UNL1       -0.2010
      2  CA       -26.3610   -7.1180  -20.3600 C.ar    1  UNL1        0.0730
      3  N        -26.5800   -5.8810  -20.9760 N.ar    1  UNL1       -0.2220
      4  C        -27.8900   -5.5250  -20.7140 C.ar    1  UNL1       -0.0430
      5  C        -28.5610   -4.3710  -21.1360 C.2     1  UNL1       -0.0310
      6  C        -29.9090   -4.2160  -20.7530 C.2     1  UNL1       -0.0380
      7  C        -30.5490   -5.2040  -19.9690 C.2     1  UNL1       -0.0640
      8  C        -29.8480   -6.3590  -19.5600 C.2     1  UNL1        0.0190
      9  C        -28.5090   -6.4920  -19.9490 C.ar    1  UNL1       -0.0560
     10  H        -25.8800   -5.3880  -21.5100 H       1  UNL1        0.2980
     11  C        -25.0380   -7.8070  -20.4630 C.2     1  UNL1        0.8300
     12  O        -24.2920   -7.8920  -19.5000 O.co2   1  UNL1       -0.8100
     13  OXT      -24.7580   -8.2840  -21.5540 O.co2   1  UNL1       -0.8100
     14  C        -27.7010   -8.8530  -18.9230 C.3     1  UNL1        0.0940
     15  C        -27.3260  -10.0760  -19.7970 C.3     1  UNL1       -0.0200
     16  C        -28.5600  -10.7680  -20.4090 C.3     1  UNL1        0.2770
     17  O        -29.6480   -9.8230  -20.4590 O.2     1  UNL1       -0.3530
     18  C        -30.8720  -10.1440  -19.9250 C.2     1  UNL1        0.1400
     19  C        -31.0220  -10.4010  -18.5530 C.2     1  UNL1       -0.0100
     20  C        -32.2850  -10.7140  -18.0230 C.2     1  UNL1       -0.0400
     21  C        -32.4160  -10.9970  -16.5320 C.3     1  UNL1        0.0910
     22  C        -33.4080  -10.7550  -18.8790 C.2     1  UNL1       -0.0290
     23  C        -33.2630  -10.4780  -20.2560 C.2     1  UNL1       -0.0400
     24 CL        -34.9950  -11.1410  -18.2270 Cl      1  UNL1       -0.1380
     25  C        -31.9890  -10.1690  -20.7680 C.2     1  UNL1       -0.0100
     26  C        -34.4620  -10.5050  -21.1940 C.3     1  UNL1        0.0910
@<TRIPOS>BOND
     1    13    11   ar
     2    10     3    1
     3    26    23    1
     4     5     6    1
     5     5     4    2
     6     3     4   ar
     7     3     2   ar
     8    25    23    1
     9    25    18    2
    10     6     7    2
    11     4     9   ar
    12    11     2    1
    13    11    12   ar
    14    17    16    1
    15    17    18    1
    16    16    15    1
    17     2     1   ar
    18    23    22    2
    19     7     8    1
    20     9     1   ar
    21     9     8    2
    22    18    19    1
    23    15    14    1
    24     1    14    1
    25    22    24    1
    26    22    20    1
    27    19    20    2
    28    20    21    1
########## Name: lig_43
########## Vina_BE: -10.054
########## MW: 327.248
########## clogP: 1.685
########## nonHatoms: 27
########## Vina_LE: -0.372
########## Vina_LipE: -11.739
########## Close_contacts: 0
########## Hydrophob_contacts: 34
########## HBonds: 2
########## Salt_Bridges: 0
########## Pi-Pi_Parallel: 0
########## Pi-Pi_Perpendicular: 0
########## Pi-Cation: 0
########## Halogen_Bonds: 0
@<TRIPOS>MOLECULE
lig_43.pdbqt
 27 30 0 0 0
SMALL
GASTEIGER

@<TRIPOS>ATOM
      1  C        -27.7670   -8.8390  -19.0340 C.3     1  UNL1        0.1050
      2  C        -27.5950   -7.5500  -19.8030 C.ar    1  UNL1       -0.1800
      3  C        -28.5870   -6.5200  -20.0150 C.ar    1  UNL1       -0.0710
      4  C        -29.9280   -6.4500  -19.6170 C.2     1  UNL1        0.0250
      5  C        -28.0000   -5.5000  -20.7120 C.ar    1  UNL1       -0.0400
      6  C        -30.6610   -5.2930  -19.9590 C.2     1  UNL1       -0.0700
      7  C        -30.0480   -4.2420  -20.6800 C.2     1  UNL1       -0.0350
      8  C        -28.6950   -4.3370  -21.0670 C.2     1  UNL1       -0.0330
      9  N        -26.6850   -5.8240  -20.9630 N.ar    1  UNL1       -0.2140
     10  CA       -26.4100   -7.0830  -20.3970 C.ar    1  UNL1       -0.0480
     11  H        -25.9900   -5.2700  -21.4420 H       1  UNL1        0.3100
     12  C        -25.0560   -7.7050  -20.4730 C.2     1  UNL1        0.9320
     13  O        -24.8080   -8.3280  -21.4940 O.co2   1  UNL1       -0.8220
     14  OXT      -24.2620   -7.6090  -19.5520 O.co2   1  UNL1       -0.8220
     15  C        -27.4560  -10.0870  -19.8930 C.3     1  UNL1       -0.0240
     16  C        -28.7250  -10.8520  -20.3500 C.3     1  UNL1        0.2800
     17  O        -29.8300   -9.9270  -20.4760 O.2     1  UNL1       -0.3510
     18  C        -31.0830  -10.2130  -19.9740 C.2     1  UNL1        0.1230
     19  C        -32.1920  -10.1050  -20.8260 C.2     1  UNL1       -0.0090
     20  C        -33.4900  -10.3420  -20.3370 C.2     1  UNL1       -0.0040
     21  C        -33.6800  -10.6900  -18.9870 C.2     1  UNL1       -0.0700
     22  C        -34.9720  -10.9110  -18.4770 C.2     1  UNL1       -0.0070
     23  C        -32.5630  -10.8120  -18.1340 C.2     1  UNL1       -0.0050
     24  C        -35.1480  -11.2480  -17.1240 C.2     1  UNL1       -0.0330
     25  C        -34.0340  -11.3650  -16.2760 C.2     1  UNL1       -0.0250
     26  C        -32.7410  -11.1470  -16.7810 C.2     1  UNL1        0.0610
     27  C        -31.2710  -10.5860  -18.6320 C.2     1  UNL1        0.0260
@<TRIPOS>BOND
     1    13    12   ar
     2    11     9    1
     3     8     5    1
     4     8     7    2
     5     9     5   ar
     6     9    10   ar
     7    19    20    1
     8    19    18    2
     9     5     3   ar
    10     7     6    1
    11    17    16    1
    12    17    18    1
    13    12    10    1
    14    12    14   ar
    15    10     2   ar
    16    16    15    1
    17    20    21    2
    18     3     2   ar
    19     3     4    1
    20    18    27    1
    21     6     4    2
    22    15     1    1
    23     2     1    1
    24    21    22    1
    25    21    23    1
    26    27    23    2
    27    22    24    2
    28    23    26    1
    29    24    25    1
    30    26    25    2
########## Name: lig_46
########## Vina_BE: -9.734
########## MW: 315.238
########## clogP: 0.06
########## nonHatoms: 26
########## Vina_LE: -0.374
########## Vina_LipE: -9.794
########## Close_contacts: 0
########## Hydrophob_contacts: 27
########## HBonds: 2
########## Salt_Bridges: 0
########## Pi-Pi_Parallel: 0
########## Pi-Pi_Perpendicular: 0
########## Pi-Cation: 0
########## Halogen_Bonds: 0
@<TRIPOS>MOLECULE
lig_46.pdbqt
 26 29 0 0 0
SMALL
GASTEIGER

@<TRIPOS>ATOM
      1  CA       -26.4480   -7.2240  -20.3220 C.ar    1  UNL1        0.0410
      2  N        -26.5450   -5.9310  -20.8350 N.ar    1  UNL1       -0.2150
      3  C        -27.8460   -5.5560  -20.5770 C.ar    1  UNL1       -0.0400
      4  C        -28.4740   -4.3440  -20.8860 C.2     1  UNL1       -0.0330
      5  C        -29.8270   -4.1950  -20.5190 C.2     1  UNL1       -0.0360
      6  C        -30.5090   -5.2430  -19.8580 C.2     1  UNL1       -0.0710
      7  C        -29.8490   -6.4540  -19.5590 C.2     1  UNL1        0.0250
      8  C        -28.5040   -6.5860  -19.9310 C.ar    1  UNL1       -0.0710
      9  C        -27.6350   -7.6490  -19.7600 C.ar    1  UNL1       -0.1800
     10  H        -25.7950   -5.4290  -21.2870 H       1  UNL1        0.3100
     11  C        -25.1620   -7.9800  -20.4240 C.2     1  UNL1        0.8430
     12  OXT      -24.8330   -8.3350  -21.5470 O.co2   1  UNL1       -0.8210
     13  O        -24.5110   -8.2620  -19.4300 O.co2   1  UNL1       -0.8210
     14  C        -27.9650   -8.9670  -19.0800 C.3     1  UNL1        0.1040
     15  C        -27.6810  -10.1940  -19.9750 C.3     1  UNL1       -0.0250
     16  C        -28.9650  -10.8820  -20.5020 C.3     1  UNL1        0.2810
     17  O        -30.0540   -9.9340  -20.5080 O.2     1  UNL1       -0.3520
     18  C        -31.2830  -10.2070  -19.9390 C.2     1  UNL1        0.1360
     19  C        -32.4120  -10.1970  -20.7820 C.2     1  UNL1       -0.0540
     20  C        -33.6980  -10.4540  -20.2680 C.2     1  UNL1        0.0120
     21  C        -33.8280  -10.7240  -18.8990 C.2     1  UNL1       -0.1440
     22  C        -32.7180  -10.7450  -18.0670 C.2     1  UNL1       -0.0520
     23  C        -35.0980  -11.0220  -18.1370 C.3     1  UNL1        0.0490
     24  C        -31.4330  -10.4910  -18.5650 C.2     1  UNL1        0.0400
     25  C        -33.0930  -11.0620  -16.6410 C.3     1  UNL1        0.0880
     26  C        -34.5860  -11.4800  -16.7430 C.3     1  UNL1       -0.0140
@<TRIPOS>BOND
     1    12    11   ar
     2    10     2    1
     3     4     3    2
     4     4     5    1
     5     2     3   ar
     6     2     1   ar
     7    19    20    1
     8    19    18    2
     9     3     8   ar
    10     5     6    2
    11    17    16    1
    12    17    18    1
    13    16    15    1
    14    11     1    1
    15    11    13   ar
    16     1     9   ar
    17    20    21    2
    18    15    14    1
    19    18    24    1
    20     8     9   ar
    21     8     7    2
    22     6     7    1
    23     9    14    1
    24    21    23    1
    25    21    22    1
    26    24    22    2
    27    23    26    1
    28    22    25    1
    29    26    25    1
########## Name: lig_47
########## Vina_BE: -9.526
########## MW: 329.244
########## clogP: 0.864
########## nonHatoms: 27
########## Vina_LE: -0.353
########## Vina_LipE: -10.39
########## Close_contacts: 1
########## Hydrophob_contacts: 19
########## HBonds: 2
########## Salt_Bridges: 0
########## Pi-Pi_Parallel: 0
########## Pi-Pi_Perpendicular: 0
########## Pi-Cation: 0
########## Halogen_Bonds: 0
@<TRIPOS>MOLECULE
lig_47.pdbqt
 27 30 0 0 0
SMALL
GASTEIGER

@<TRIPOS>ATOM
      1  C        -27.9140   -8.8790  -18.8600 C.3     1  UNL1        0.0930
      2  C        -27.6450   -7.6400  -19.6840 C.ar    1  UNL1       -0.1990
      3  C        -28.5520   -6.5430  -19.9350 C.ar    1  UNL1       -0.0570
      4  C        -29.8690   -6.3280  -19.5040 C.2     1  UNL1        0.0210
      5  C        -27.9050   -5.6210  -20.7110 C.ar    1  UNL1       -0.0420
      6  C        -30.5120   -5.1360  -19.9010 C.2     1  UNL1       -0.0640
      7  C        -29.8370   -4.1910  -20.7060 C.2     1  UNL1       -0.0370
      8  C        -28.5100   -4.4280  -21.1210 C.2     1  UNL1       -0.0300
      9  N        -26.6290   -6.0660  -20.9660 N.ar    1  UNL1       -0.2230
     10  CA       -26.4370   -7.3030  -20.3210 C.ar    1  UNL1       -0.0140
     11  H        -25.9030   -5.5960  -21.4880 H       1  UNL1        0.2970
     12  C        -25.1280   -8.0260  -20.3760 C.2     1  UNL1        0.9180
     13  OXT      -24.8250   -8.5070  -21.4570 O.co2   1  UNL1       -0.8120
     14  O        -24.4170   -8.1420  -19.3920 O.co2   1  UNL1       -0.8120
     15  C        -27.6000  -10.1840  -19.6300 C.3     1  UNL1       -0.0190
     16  C        -28.7960  -10.7220  -20.4560 C.3     1  UNL1        0.2750
     17  O        -29.9000   -9.7880  -20.3860 O.2     1  UNL1       -0.3530
     18  C        -31.1370  -10.1500  -19.8950 C.2     1  UNL1        0.1180
     19  C        -32.2430  -10.1360  -20.7580 C.2     1  UNL1       -0.0080
     20  C        -33.5250  -10.4600  -20.2710 C.2     1  UNL1       -0.0380
     21  C        -33.7230  -10.7940  -18.9200 C.2     1  UNL1        0.3580
     22  N        -34.9630  -11.0780  -18.4730 N.2     1  UNL1       -0.6790
     23  C        -32.5990  -10.8150  -18.0630 C.2     1  UNL1       -0.1170
     24  C        -35.1240  -11.3790  -17.1710 C.2     1  UNL1        0.3890
     25  C        -34.0630  -11.4110  -16.2540 C.2     1  UNL1       -0.1390
     26  C        -32.7650  -11.1220  -16.7040 C.2     1  UNL1        0.1450
     27  C        -31.3180  -10.5150  -18.5530 C.2     1  UNL1        0.0340
@<TRIPOS>BOND
     1    11     9    1
     2    13    12   ar
     3     8     5    1
     4     8     7    2
     5     9     5   ar
     6     9    10   ar
     7    19    20    1
     8    19    18    2
     9     5     3   ar
    10     7     6    1
    11    16    17    1
    12    16    15    1
    13    17    18    1
    14    12    10    1
    15    12    14   ar
    16    10     2   ar
    17    20    21    2
    18     3     2   ar
    19     3     4    1
    20     6     4    2
    21    18    27    1
    22     2     1    1
    23    15     1    1
    24    21    22    1
    25    21    23    1
    26    27    23    2
    27    22    24    2
    28    23    26    1
    29    24    25    1
    30    26    25    2
########## Name: lig_48
########## Vina_BE: -9.041
########## MW: 318.241
########## clogP: 1.356
########## nonHatoms: 27
########## Vina_LE: -0.335
########## Vina_LipE: -10.397
########## Close_contacts: 1
########## Hydrophob_contacts: 24
########## HBonds: 2
########## Salt_Bridges: 0
########## Pi-Pi_Parallel: 0
########## Pi-Pi_Perpendicular: 0
########## Pi-Cation: 0
########## Halogen_Bonds: 0
@<TRIPOS>MOLECULE
lig_48.pdbqt
 27 30 0 0 0
SMALL
GASTEIGER

@<TRIPOS>ATOM
      1  C        -28.2170   -9.2990  -19.1190 C.3     1  UNL1        0.1070
      2  C        -27.8560   -7.9430  -19.6700 C.ar    1  UNL1       -0.1800
      3  C        -28.6240   -6.7310  -19.8460 C.ar    1  UNL1       -0.0710
      4  C        -29.9630   -6.4640  -19.5340 C.2     1  UNL1        0.0260
      5  C        -27.8180   -5.7650  -20.4150 C.ar    1  UNL1       -0.0400
      6  C        -30.4690   -5.1790  -19.8180 C.2     1  UNL1       -0.0710
      7  C        -29.6410   -4.1920  -20.4010 C.2     1  UNL1       -0.0360
      8  C        -28.2950   -4.4810  -20.7080 C.2     1  UNL1       -0.0330
      9  N        -26.5480   -6.2640  -20.6340 N.ar    1  UNL1       -0.2150
     10  CA       -26.5470   -7.5900  -20.1940 C.ar    1  UNL1        0.0420
     11  H        -25.7450   -5.8080  -21.0410 H       1  UNL1        0.3100
     12  C        -25.3180   -8.4340  -20.3050 C.2     1  UNL1        0.8440
     13  O        -24.8310   -8.5330  -21.4230 O.co2   1  UNL1       -0.8220
     14  OXT      -24.8460   -9.0020  -19.3320 O.co2   1  UNL1       -0.8220
     15  C        -28.1750  -10.4000  -20.2080 C.3     1  UNL1       -0.0260
     16  C        -29.5480  -10.7100  -20.8470 C.3     1  UNL1        0.2890
     17  O        -30.5560   -9.7650  -20.4280 O.2     1  UNL1       -0.3500
     18  C        -31.8310  -10.1030  -20.0240 C.2     1  UNL1        0.1940
     19  C        -32.8500  -10.0680  -20.9970 C.2     1  UNL1       -0.0790
     20  C        -34.1770  -10.4370  -20.6820 C.2     1  UNL1        0.0210
     21  C        -34.5040  -10.8660  -19.3820 C.2     1  UNL1       -0.0830
     22  C        -33.4780  -10.9120  -18.4320 C.2     1  UNL1       -0.0070
     23  N        -33.5850  -11.2990  -17.1080 N.pl3   1  UNL1       -0.2530
     24  C        -32.1720  -10.5460  -18.7300 C.2     1  UNL1       -0.1320
     25  C        -32.2940  -11.1330  -16.6240 C.2     1  UNL1        0.0400
     26  C        -31.4240  -10.6950  -17.5750 C.2     1  UNL1        0.0740
     27  H        -34.4150  -11.5520  -16.5990 H       1  UNL1        0.2770
@<TRIPOS>BOND
     1    13    12   ar
     2    11     9    1
     3    19    20    1
     4    19    18    2
     5    16    17    1
     6    16    15    1
     7     8     5    1
     8     8     7    2
     9    20    21    2
    10     9     5   ar
    11     9    10   ar
    12    17    18    1
    13     5     3   ar
    14     7     6    1
    15    12    10    1
    16    12    14   ar
    17    15     1    1
    18    10     2   ar
    19    18    24    1
    20     3     2   ar
    21     3     4    1
    22     6     4    2
    23     2     1    1
    24    21    22    1
    25    24    22    2
    26    24    26    1
    27    22    23    1
    28    26    25    2
    29    23    25    1
    30    23    27    1
########## Name: lig_49
########## Vina_BE: -8.901
########## MW: 362.122
########## clogP: 3.003
########## nonHatoms: 26
########## Vina_LE: -0.342
########## Vina_LipE: -11.904
########## Close_contacts: 1
########## Hydrophob_contacts: 18
########## HBonds: 1
########## Salt_Bridges: 0
########## Pi-Pi_Parallel: 0
########## Pi-Pi_Perpendicular: 0
########## Pi-Cation: 0
########## Halogen_Bonds: 0
@<TRIPOS>MOLECULE
lig_49.pdbqt
 26 28 0 0 0
SMALL
GASTEIGER

@<TRIPOS>ATOM
      1  C        -31.1140  -10.1250  -19.7080 C.ar    1  UNL1       -0.1740
      2  CA       -30.0860  -10.0790  -18.6840 C.ar    1  UNL1        0.0510
      3  N        -30.6310  -10.3800  -17.4360 N.ar    1  UNL1       -0.2090
      4  C        -31.9680  -10.6540  -17.6350 C.ar    1  UNL1       -0.0400
      5  C        -32.8940  -11.0400  -16.6590 C.2     1  UNL1       -0.0230
      6  C        -34.2140  -11.3040  -17.0680 C.2     1  UNL1       -0.0280
      7  C        -34.5720  -11.1840  -18.4280 C.2     1  UNL1       -0.0470
      8  C        -33.6230  -10.7960  -19.3970 C.2     1  UNL1        0.0560
      9 CL        -34.1360  -10.6990  -21.0710 Cl      1  UNL1       -0.1430
     10  C        -32.3060  -10.5250  -18.9720 C.ar    1  UNL1       -0.0600
     11  H        -30.0900  -10.4140  -16.5860 H       1  UNL1        0.3140
     12  C        -28.6310   -9.7810  -18.8220 C.2     1  UNL1        0.8390
     13  O        -28.2350   -8.7710  -18.2570 O.co2   1  UNL1       -0.8100
     14  OXT      -27.8920  -10.5290  -19.4400 O.co2   1  UNL1       -0.8100
     15  C        -30.8500   -9.8190  -21.1630 C.3     1  UNL1        0.1160
     16  C        -30.2670   -8.3990  -21.3610 C.3     1  UNL1        0.0410
     17  C        -31.0980   -7.2990  -20.6730 C.3     1  UNL1        0.2120
     18  O        -30.3290   -6.7410  -19.5930 O.2     1  UNL1       -0.3330
     19  C        -29.6060   -5.5920  -19.7860 C.2     1  UNL1        0.1530
     20  C        -28.2360   -5.6490  -20.0870 C.2     1  UNL1       -0.0300
     21  C        -27.5040   -4.4640  -20.2980 C.2     1  UNL1       -0.0340
     22  C        -26.0210   -4.5420  -20.6310 C.3     1  UNL1        0.0910
     23  C        -28.1650   -3.2200  -20.2070 C.2     1  UNL1       -0.0280
     24  C        -29.5390   -3.1670  -19.9170 C.2     1  UNL1        0.0370
     25 CL        -27.3050   -1.7130  -20.4610 Cl      1  UNL1       -0.1260
     26  C        -30.2600   -4.3560  -19.7110 C.2     1  UNL1       -0.0160
@<TRIPOS>BOND
     1    16    15    1
     2    16    17    1
     3    15     1    1
     4     9     8    1
     5    17    18    1
     6    22    21    1
     7    25    23    1
     8    21    23    2
     9    21    20    1
    10    23    24    1
    11    20    19    2
    12    24    26    2
    13    19    26    1
    14    19    18    1
    15     1    10   ar
    16     1     2   ar
    17    14    12   ar
    18     8    10    1
    19     8     7    2
    20    10     4   ar
    21    12     2    1
    22    12    13   ar
    23     2     3   ar
    24     7     6    1
    25     4     3   ar
    26     4     5    1
    27     3    11    1
    28     6     5    2
########## Name: lig_50
########## Vina_BE: -8.542
########## MW: 374.133
########## clogP: 3.158
########## nonHatoms: 27
########## Vina_LE: -0.316
########## Vina_LipE: -11.7
########## Close_contacts: 0
########## Hydrophob_contacts: 22
########## HBonds: 1
########## Salt_Bridges: 0
########## Pi-Pi_Parallel: 0
########## Pi-Pi_Perpendicular: 0
########## Pi-Cation: 0
########## Halogen_Bonds: 0
@<TRIPOS>MOLECULE
lig_50.pdbqt
 27 29 0 0 0
SMALL
GASTEIGER

@<TRIPOS>ATOM
      1  C        -27.3250   -6.5050  -20.5670 C.ar    1  UNL1       -0.1640
      2  CA       -26.0290   -6.0180  -20.8000 C.ar    1  UNL1       -0.0500
      3  N        -26.0690   -4.6200  -20.6760 N.ar    1  UNL1       -0.2090
      4  C        -27.3600   -4.2340  -20.4020 C.ar    1  UNL1       -0.0360
      5  C        -27.8400   -2.9300  -20.2310 C.2     1  UNL1       -0.0240
      6  C        -29.2160   -2.7660  -19.9830 C.2     1  UNL1       -0.0220
      7  C        -30.0640   -3.8950  -19.9220 C.2     1  UNL1       -0.0480
      8  C        -29.5510   -5.1970  -20.1020 C.2     1  UNL1        0.0590
      9 CL        -30.6700   -6.5450  -20.0460 Cl      1  UNL1       -0.1270
     10  C        -28.1680   -5.3420  -20.3350 C.ar    1  UNL1       -0.0630
     11  H        -25.2560   -4.0350  -20.8030 H       1  UNL1        0.3140
     12  C        -24.7680   -6.7440  -21.1320 C.2     1  UNL1        0.9330
     13  OXT      -24.1000   -7.1100  -20.1760 O.co2   1  UNL1       -0.8180
     14  O        -24.4200   -6.9290  -22.2860 O.co2   1  UNL1       -0.8180
     15  C        -27.6910   -7.9720  -20.5690 C.3     1  UNL1        0.1110
     16  C        -27.4960   -8.6280  -19.1780 C.3     1  UNL1       -0.0170
     17  C        -28.4140   -9.8470  -18.9660 C.3     1  UNL1        0.2780
     18  O        -29.4860   -9.7900  -19.9270 O.2     1  UNL1       -0.3480
     19  C        -30.7690  -10.1010  -19.5530 C.2     1  UNL1        0.1430
     20  C        -31.8180  -10.0860  -20.4860 C.2     1  UNL1       -0.0060
     21  C        -33.1250  -10.4230  -20.0910 C.2     1  UNL1       -0.0430
     22  C        -34.2440  -10.3930  -21.1230 C.3     1  UNL1        0.0850
     23  C        -33.3720  -10.7890  -18.7490 C.2     1  UNL1       -0.0300
     24  C        -32.3150  -10.8230  -17.8130 C.2     1  UNL1       -0.0430
     25 CL        -35.0010  -11.2150  -18.2430 Cl      1  UNL1       -0.1380
     26  C        -31.0140  -10.4810  -18.2280 C.2     1  UNL1       -0.0060
     27  C        -32.5570  -11.2280  -16.3660 C.3     1  UNL1        0.0850
@<TRIPOS>BOND
     1    14    12   ar
     2    12     2    1
     3    12    13   ar
     4    22    21    1
     5    11     3    1
     6     2     3   ar
     7     2     1   ar
     8     3     4   ar
     9    15     1    1
    10    15    16    1
    11     1    10   ar
    12    20    21    1
    13    20    19    2
    14     4    10   ar
    15     4     5    1
    16    10     8    1
    17     5     6    2
    18     8     9    1
    19     8     7    2
    20    21    23    2
    21     6     7    1
    22    18    19    1
    23    18    17    1
    24    19    26    1
    25    16    17    1
    26    23    25    1
    27    23    24    1
    28    26    24    2
    29    24    27    1
########## Name: lig_52
########## Vina_BE: -8.957
########## MW: 362.122
########## clogP: 1.35
########## nonHatoms: 26
########## Vina_LE: -0.345
########## Vina_LipE: -10.307
########## Close_contacts: 1
########## Hydrophob_contacts: 22
########## HBonds: 1
########## Salt_Bridges: 0
########## Pi-Pi_Parallel: 0
########## Pi-Pi_Perpendicular: 0
########## Pi-Cation: 0
########## Halogen_Bonds: 1
@<TRIPOS>MOLECULE
lig_52.pdbqt
 26 28 0 0 0
SMALL
GASTEIGER

@<TRIPOS>ATOM
      1  C        -27.8520   -8.1180  -19.7580 C.ar    1  UNL1       -0.1740
      2  CA       -26.4980   -7.7530  -20.1310 C.ar    1  UNL1        0.0510
      3  N        -26.4490   -6.4140  -20.5320 N.ar    1  UNL1       -0.2090
      4  C        -27.7250   -5.9020  -20.3780 C.ar    1  UNL1       -0.0400
      5  C        -28.1490   -4.5860  -20.5970 C.2     1  UNL1       -0.0230
      6  C        -29.5010   -4.2790  -20.3370 C.2     1  UNL1       -0.1420
      7 CL        -30.0840   -2.6480  -20.5860 Cl      1  UNL1       -0.1430
      8  C        -30.3840   -5.2740  -19.8680 C.2     1  UNL1       -0.0570
      9  C        -29.9300   -6.5920  -19.6560 C.2     1  UNL1        0.1800
     10  C        -28.5850   -6.8810  -19.9230 C.ar    1  UNL1       -0.0600
     11  H        -25.6040   -5.9420  -20.8160 H       1  UNL1        0.3140
     12  C        -25.2650   -8.5920  -20.0980 C.2     1  UNL1        0.8390
     13  OXT      -24.4890   -8.5190  -19.1590 O.co2   1  UNL1       -0.8100
     14  O        -25.0800   -9.3190  -21.0620 O.co2   1  UNL1       -0.8100
     15  C        -28.2600   -9.4600  -19.2020 C.3     1  UNL1        0.1160
     16  C        -28.2300  -10.5730  -20.2760 C.3     1  UNL1        0.0410
     17  C        -29.5990  -10.8060  -20.9460 C.3     1  UNL1        0.2120
     18  O        -30.5310   -9.8360  -20.4290 O.2     1  UNL1       -0.3330
     19  C        -31.6760  -10.1770  -19.7440 C.2     1  UNL1        0.1530
     20  C        -31.5360  -10.5720  -18.4060 C.2     1  UNL1       -0.0300
     21  C        -32.6560  -10.9590  -17.6470 C.2     1  UNL1       -0.0340
     22  C        -32.4770  -11.3900  -16.1990 C.3     1  UNL1        0.0910
     23  C        -33.9310  -10.9470  -18.2480 C.2     1  UNL1       -0.0280
     24  C        -34.0760  -10.5610  -19.5910 C.2     1  UNL1        0.0370
     25 CL        -35.3640  -11.4160  -17.3520 Cl      1  UNL1       -0.1260
     26  C        -32.9520  -10.1770  -20.3410 C.2     1  UNL1       -0.0160
@<TRIPOS>BOND
     1    14    12   ar
     2    17    18    1
     3    17    16    1
     4    11     3    1
     5     5     4    2
     6     5     6    1
     7     7     6    1
     8     3     4   ar
     9     3     2   ar
    10    18    19    1
    11     4    10   ar
    12    26    19    2
    13    26    24    1
    14     6     8    2
    15    16    15    1
    16     2    12    1
    17     2     1   ar
    18    12    13   ar
    19    10     1   ar
    20    10     9    2
    21     8     9    1
    22     1    15    1
    23    19    20    1
    24    24    23    2
    25    20    21    2
    26    23    21    1
    27    23    25    1
    28    21    22    1
########## Name: lig_53
########## Vina_BE: -8.884
########## MW: 374.133
########## clogP: 1.505
########## nonHatoms: 27
########## Vina_LE: -0.329
########## Vina_LipE: -10.389
########## Close_contacts: 1
########## Hydrophob_contacts: 19
########## HBonds: 2
########## Salt_Bridges: 0
########## Pi-Pi_Parallel: 0
########## Pi-Pi_Perpendicular: 0
########## Pi-Cation: 0
########## Halogen_Bonds: 1
@<TRIPOS>MOLECULE
lig_53.pdbqt
 27 29 0 0 0
SMALL
GASTEIGER

@<TRIPOS>ATOM
      1  C        -27.4930   -7.5630  -19.7060 C.ar    1  UNL1       -0.1640
      2  CA       -26.2640   -7.2710  -20.3140 C.ar    1  UNL1       -0.0500
      3  N        -26.3850   -6.0200  -20.9450 N.ar    1  UNL1       -0.2090
      4  C        -27.6650   -5.5450  -20.7490 C.ar    1  UNL1       -0.0360
      5  C        -28.2340   -4.3510  -21.2080 C.2     1  UNL1       -0.0240
      6  C        -29.5800   -4.0990  -20.8750 C.2     1  UNL1       -0.1370
      7 CL        -30.3500   -2.6240  -21.4180 Cl      1  UNL1       -0.1270
      8  C        -30.3140   -5.0310  -20.1060 C.2     1  UNL1       -0.0580
      9  C        -29.7090   -6.2260  -19.6620 C.2     1  UNL1        0.1840
     10  C        -28.3690   -6.4530  -20.0040 C.ar    1  UNL1       -0.0630
     11  H        -25.6350   -5.5820  -21.4600 H       1  UNL1        0.3140
     12  C        -25.0080   -8.0750  -20.3470 C.2     1  UNL1        0.9330
     13  O        -24.2970   -8.1800  -19.3590 O.co2   1  UNL1       -0.8180
     14  OXT      -24.7520   -8.6250  -21.4080 O.co2   1  UNL1       -0.8180
     15  C        -27.7950   -8.8210  -18.9320 C.3     1  UNL1        0.1110
     16  C        -27.4140  -10.0980  -19.7220 C.3     1  UNL1       -0.0170
     17  C        -28.6280  -10.7510  -20.4130 C.3     1  UNL1        0.2780
     18  O        -29.7140   -9.8020  -20.4340 O.2     1  UNL1       -0.3480
     19  C        -30.9370  -10.1390  -19.9090 C.2     1  UNL1        0.1430
     20  C        -31.0870  -10.4170  -18.5400 C.2     1  UNL1       -0.0060
     21  C        -32.3510  -10.7460  -18.0180 C.2     1  UNL1       -0.0430
     22  C        -32.4840  -11.0510  -16.5320 C.3     1  UNL1        0.0850
     23  C        -33.4710  -10.7810  -18.8770 C.2     1  UNL1       -0.0300
     24  C        -33.3250  -10.4840  -20.2500 C.2     1  UNL1       -0.0430
     25 CL        -35.0570  -11.1870  -18.2350 Cl      1  UNL1       -0.1380
     26  C        -32.0520  -10.1580  -20.7540 C.2     1  UNL1       -0.0060
     27  C        -34.5220  -10.5060  -21.1910 C.3     1  UNL1        0.0850
@<TRIPOS>BOND
     1    11     3    1
     2     7     6    1
     3    14    12   ar
     4     5     6    1
     5     5     4    2
     6    27    24    1
     7     3     4   ar
     8     3     2   ar
     9     6     8    2
    10    26    24    1
    11    26    19    2
    12     4    10   ar
    13    18    17    1
    14    18    19    1
    15    17    16    1
    16    12     2    1
    17    12    13   ar
    18     2     1   ar
    19    24    23    2
    20     8     9    1
    21    10     1   ar
    22    10     9    2
    23    19    20    1
    24    16    15    1
    25     1    15    1
    26    23    25    1
    27    23    21    1
    28    20    21    2
    29    21    22    1
########## Name: lig_56
########## Vina_BE: -8.925
########## MW: 349.683
########## clogP: 0.609
########## nonHatoms: 26
########## Vina_LE: -0.343
########## Vina_LipE: -9.534
########## Close_contacts: 0
########## Hydrophob_contacts: 24
########## HBonds: 2
########## Salt_Bridges: 0
########## Pi-Pi_Parallel: 0
########## Pi-Pi_Perpendicular: 0
########## Pi-Cation: 0
########## Halogen_Bonds: 0
@<TRIPOS>MOLECULE
lig_56.pdbqt
 26 28 0 0 0
SMALL
GASTEIGER

@<TRIPOS>ATOM
      1  C        -27.4550   -7.3340  -19.8560 C.ar    1  UNL1       -0.1970
      2  C        -26.3090   -6.8700  -20.6270 C.ar    1  UNL1        0.0660
      3  N        -26.6100   -5.6230  -21.2190 N.ar    1  UNL1       -0.0970
      4  C        -25.7570   -4.8220  -22.1110 C.3     1  UNL1        0.1750
      5  C        -27.8930   -5.2830  -20.8030 C.ar    1  UNL1       -0.0460
      6  C        -28.6200   -4.1140  -21.0850 C.2     1  UNL1       -0.0230
      7  C        -29.9070   -3.9760  -20.5260 C.2     1  UNL1       -0.0410
      8  C        -30.4410   -4.9890  -19.7000 C.2     1  UNL1       -0.0640
      9  C        -29.6930   -6.1520  -19.4280 C.2     1  UNL1        0.0090
     10  C        -28.4200   -6.2720  -19.9990 C.ar    1  UNL1       -0.0690
     11  C        -24.9910   -7.5780  -20.7780 C.2     1  UNL1        0.8400
     12  O        -24.1440   -7.4930  -19.9030 O.co2   1  UNL1       -0.8120
     13  O        -24.7720   -8.2130  -21.8000 O.co2   1  UNL1       -0.8120
     14  C        -27.5220   -8.6230  -19.0730 C.3     1  UNL1        0.0980
     15  C        -27.2500   -9.8630  -19.9550 C.3     1  UNL1        0.0270
     16  C        -28.5290  -10.6320  -20.3420 C.3     1  UNL1        0.2560
     17  O        -29.6450   -9.7220  -20.2950 O.2     1  UNL1       -0.3370
     18  C        -30.8630  -10.0770  -19.7660 C.2     1  UNL1        0.1610
     19  C        -31.9630  -10.1270  -20.6310 C.2     1  UNL1       -0.0360
     20  C        -33.2360  -10.4850  -20.1550 C.2     1  UNL1       -0.0350
     21  C        -34.4160  -10.5110  -21.1160 C.3     1  UNL1        0.0850
     22  C        -33.3990  -10.8090  -18.7900 C.2     1  UNL1       -0.0350
     23  C        -32.2930  -10.7690  -17.9130 C.2     1  UNL1       -0.0350
     24 CL        -34.9840  -11.2690  -18.1840 Cl      1  UNL1       -0.1280
     25  C        -31.0290  -10.4000  -18.4080 C.2     1  UNL1       -0.0360
     26  C        -32.4490  -11.1180  -16.4390 C.3     1  UNL1        0.0850
@<TRIPOS>BOND
     1     4     3    1
     2    13    11   ar
     3     3     5   ar
     4     3     2   ar
     5    21    20    1
     6     6     5    2
     7     6     7    1
     8     5    10   ar
     9    11     2    1
    10    11    12   ar
    11    19    20    1
    12    19    18    2
    13     2     1   ar
    14     7     8    2
    15    16    17    1
    16    16    15    1
    17    17    18    1
    18    20    22    2
    19    10     1   ar
    20    10     9    2
    21    15    14    1
    22     1    14    1
    23    18    25    1
    24     8     9    1
    25    22    24    1
    26    22    23    1
    27    25    23    2
    28    23    26    1
########## Name: lig_58
########## Vina_BE: -8.891
########## MW: 385.136
########## clogP: 1.372
########## nonHatoms: 27
########## Vina_LE: -0.329
########## Vina_LipE: -10.263
########## Close_contacts: 1
########## Hydrophob_contacts: 22
########## HBonds: 2
########## Salt_Bridges: 0
########## Pi-Pi_Parallel: 0
########## Pi-Pi_Perpendicular: 0
########## Pi-Cation: 0
########## Halogen_Bonds: 1
@<TRIPOS>MOLECULE
lig_58.pdbqt
 27 29 0 0 0
SMALL
GASTEIGER

@<TRIPOS>ATOM
      1  C        -27.5310   -7.6030  -19.6140 C.ar    1  UNL1       -0.1800
      2  C        -26.2640   -7.2590  -20.2470 C.ar    1  UNL1        0.0600
      3  N        -26.3800   -6.0060  -20.8880 N.ar    1  UNL1       -0.0930
      4  C        -25.3410   -5.2780  -21.6330 C.3     1  UNL1        0.1810
      5  C        -27.6870   -5.5730  -20.6850 C.ar    1  UNL1       -0.0420
      6  C        -28.2950   -4.3920  -21.1450 C.2     1  UNL1        0.0010
      7  C        -29.6480   -4.1710  -20.8180 C.2     1  UNL1        0.0120
      8 CL        -30.4450   -2.7130  -21.3710 Cl      1  UNL1       -0.1500
      9  C        -30.3670   -5.1130  -20.0540 C.2     1  UNL1       -0.0410
     10  C        -29.7390   -6.2920  -19.6050 C.2     1  UNL1        0.0370
     11  C        -28.3920   -6.4930  -19.9380 C.ar    1  UNL1       -0.0650
     12  C        -25.0110   -8.0910  -20.2460 C.2     1  UNL1        0.8390
     13  O        -24.8200   -8.8740  -21.1620 O.co2   1  UNL1       -0.8140
     14  O        -24.2010   -7.9890  -19.3360 O.co2   1  UNL1       -0.8140
     15  C        -27.8010   -8.8740  -18.8490 C.3     1  UNL1        0.1100
     16  C        -27.4320  -10.1360  -19.6680 C.3     1  UNL1       -0.0230
     17  C        -28.6470  -10.7550  -20.3880 C.3     1  UNL1        0.2740
     18  O        -29.7260   -9.7980  -20.3900 O.2     1  UNL1       -0.3490
     19  C        -30.9550  -10.1370  -19.8790 C.2     1  UNL1        0.1360
     20  C        -32.0990  -10.1650  -20.6930 C.2     1  UNL1       -0.0030
     21  C        -33.3450  -10.5290  -20.1550 C.2     1  UNL1       -0.0420
     22  C        -34.5700  -10.5420  -21.0590 C.3     1  UNL1        0.0890
     23  C        -33.4380  -10.8800  -18.7900 C.2     1  UNL1       -0.0280
     24  C        -32.2860  -10.8700  -17.9730 C.2     1  UNL1       -0.0420
     25 CL        -34.9910  -11.3380  -18.1050 Cl      1  UNL1       -0.1370
     26  C        -31.0480  -10.5010  -18.5310 C.2     1  UNL1       -0.0030
     27  C        -32.3620  -11.2550  -16.5020 C.3     1  UNL1        0.0890
@<TRIPOS>BOND
     1     4     3    1
     2     8     7    1
     3    13    12   ar
     4     6     7    1
     5     6     5    2
     6    22    21    1
     7     3     5   ar
     8     3     2   ar
     9     7     9    2
    10    20    21    1
    11    20    19    2
    12     5    11   ar
    13    18    17    1
    14    18    19    1
    15    17    16    1
    16     2    12    1
    17     2     1   ar
    18    12    14   ar
    19    21    23    2
    20     9    10    1
    21    11     1   ar
    22    11    10    2
    23    19    26    1
    24    16    15    1
    25     1    15    1
    26    23    25    1
    27    23    24    1
    28    26    24    2
    29    24    27    1
########## Name: lig_60
########## Vina_BE: -8.707
########## MW: 355.73
########## clogP: 1.475
########## nonHatoms: 25
########## Vina_LE: -0.348
########## Vina_LipE: -10.182
########## Close_contacts: 1
########## Hydrophob_contacts: 25
########## HBonds: 2
########## Salt_Bridges: 0
########## Pi-Pi_Parallel: 0
########## Pi-Pi_Perpendicular: 0
########## Pi-Cation: 0
########## Halogen_Bonds: 0
@<TRIPOS>MOLECULE
lig_60.pdbqt
 25 27 0 0 0
SMALL
GASTEIGER

@<TRIPOS>ATOM
      1  C        -27.3450   -8.4870  -19.2570 C.3     1  UNL1        0.0980
      2  C        -27.2570   -7.1770  -20.0130 C.ar    1  UNL1       -0.1170
      3  C        -26.1280   -6.7730  -20.7390 C.ar    1  UNL1       -0.0730
      4  S        -26.3360   -5.1930  -21.5450 S.2     1  UNL1        0.0590
      5  C        -27.9490   -5.0610  -20.8420 C.ar    1  UNL1       -0.1180
      6  C        -28.8200   -3.9730  -21.0040 C.2     1  UNL1        0.0270
      7  C        -28.2960   -6.1590  -20.0780 C.ar    1  UNL1       -0.0690
      8  C        -30.0720   -4.0040  -20.3630 C.2     1  UNL1       -0.0420
      9  C        -30.4340   -5.1180  -19.5800 C.2     1  UNL1       -0.0390
     10  C        -29.5470   -6.2010  -19.4360 C.2     1  UNL1        0.0130
     11  C        -24.8320   -7.4940  -20.8930 C.2     1  UNL1        0.9090
     12  O        -24.0730   -7.6330  -19.9480 O.co2   1  UNL1       -0.8140
     13  O        -24.5480   -7.9080  -22.0060 O.co2   1  UNL1       -0.8140
     14  C        -27.1660   -9.7200  -20.1760 C.3     1  UNL1        0.0340
     15  C        -28.4310  -10.5960  -20.2750 C.3     1  UNL1        0.2510
     16  O        -29.5780   -9.7290  -20.3540 O.2     1  UNL1       -0.3350
     17  C        -30.8040  -10.0720  -19.8320 C.2     1  UNL1        0.1600
     18  C        -31.8990  -10.0950  -20.7030 C.2     1  UNL1       -0.0360
     19  C        -33.1820  -10.4270  -20.2340 C.2     1  UNL1       -0.0340
     20  C        -34.3580  -10.4210  -21.2010 C.3     1  UNL1        0.0860
     21  C        -33.3580  -10.7560  -18.8730 C.2     1  UNL1       -0.0340
     22  C        -32.2550  -10.7450  -17.9910 C.2     1  UNL1       -0.0340
     23 CL        -34.9560  -11.1820  -18.2740 Cl      1  UNL1       -0.1270
     24  C        -30.9810  -10.4000  -18.4770 C.2     1  UNL1       -0.0360
     25  C        -32.4250  -11.0990  -16.5190 C.3     1  UNL1        0.0860
@<TRIPOS>BOND
     1    13    11   ar
     2     4     5   ar
     3     4     3   ar
     4    20    19    1
     5     6     5    2
     6     6     8    1
     7    11     3    1
     8    11    12   ar
     9     5     7   ar
    10     3     2   ar
    11    18    19    1
    12    18    17    2
    13     8     9    2
    14    16    15    1
    15    16    17    1
    16    15    14    1
    17    19    21    2
    18    14     1    1
    19     7     2   ar
    20     7    10    2
    21     2     1    1
    22    17    24    1
    23     9    10    1
    24    21    23    1
    25    21    22    1
    26    24    22    2
    27    22    25    1
########## Name: lig_61
########## Vina_BE: -8.688
########## MW: 391.183
########## clogP: 3.892
########## nonHatoms: 26
########## Vina_LE: -0.334
########## Vina_LipE: -12.58
########## Close_contacts: 0
########## Hydrophob_contacts: 21
########## HBonds: 1
########## Salt_Bridges: 0
########## Pi-Pi_Parallel: 0
########## Pi-Pi_Perpendicular: 0
########## Pi-Cation: 0
########## Halogen_Bonds: 0
@<TRIPOS>MOLECULE
lig_61.pdbqt
 26 28 0 0 0
SMALL
GASTEIGER

@<TRIPOS>ATOM
      1  C        -27.3600   -6.4920  -20.5530 C.ar    1  UNL1       -0.1210
      2  C        -26.0360   -6.0820  -20.7720 C.ar    1  UNL1       -0.3280
      3  S        -25.7810   -4.3390  -20.5890 S.2     1  UNL1        0.2480
      4  C        -27.5080   -4.1410  -20.2920 C.ar    1  UNL1       -0.0670
      5  C        -28.1230   -2.8980  -20.0770 C.2     1  UNL1        0.0330
      6  C        -29.5120   -2.8500  -19.8860 C.2     1  UNL1       -0.0310
      7  C        -30.2610   -4.0390  -19.9320 C.2     1  UNL1       -0.0180
      8  C        -29.6330   -5.2810  -20.1500 C.2     1  UNL1        0.0490
      9 CL        -30.6980   -6.6720  -20.2390 Cl      1  UNL1       -0.1180
     10  C        -28.2250   -5.3300  -20.3170 C.ar    1  UNL1       -0.0270
     11  C        -24.8420   -6.8960  -21.1200 C.2     1  UNL1        0.9220
     12  O        -24.1310   -7.2370  -20.1910 O.co2   1  UNL1       -0.8090
     13  O        -24.5750   -7.1750  -22.2760 O.co2   1  UNL1       -0.8090
     14  C        -27.7360   -7.9590  -20.5430 C.3     1  UNL1        0.1020
     15  C        -27.4750   -8.6210  -19.1670 C.3     1  UNL1       -0.0120
     16  C        -28.4030   -9.8240  -18.9090 C.3     1  UNL1        0.2760
     17  O        -29.4700   -9.8110  -19.8810 O.2     1  UNL1       -0.3520
     18  C        -30.7520  -10.1340  -19.5090 C.2     1  UNL1        0.1360
     19  C        -31.7980  -10.1510  -20.4460 C.2     1  UNL1       -0.0060
     20  C        -33.1010  -10.4990  -20.0470 C.2     1  UNL1       -0.0400
     21  C        -34.2190  -10.5010  -21.0820 C.3     1  UNL1        0.0910
     22  C        -33.3490  -10.8440  -18.6990 C.2     1  UNL1       -0.0280
     23  C        -32.2930  -10.8450  -17.7610 C.2     1  UNL1       -0.0400
     24 CL        -34.9740  -11.2820  -18.1900 Cl      1  UNL1       -0.1390
     25  C        -30.9970  -10.4920  -18.1780 C.2     1  UNL1       -0.0060
     26  C        -32.5360  -11.2250  -16.3060 C.3     1  UNL1        0.0910
@<TRIPOS>BOND
     1    13    11   ar
     2    11     2    1
     3    11    12   ar
     4    21    20    1
     5     2     3   ar
     6     2     1   ar
     7     3     4   ar
     8     1    14    1
     9     1    10   ar
    10    14    15    1
    11    19    20    1
    12    19    18    2
    13    10     4   ar
    14    10     8    1
    15     4     5    1
    16     9     8    1
    17     8     7    2
    18     5     6    2
    19    20    22    2
    20     7     6    1
    21    17    18    1
    22    17    16    1
    23    18    25    1
    24    15    16    1
    25    22    24    1
    26    22    23    1
    27    25    23    2
    28    23    26    1
########## Name: lig_63
########## Vina_BE: -8.721
########## MW: 391.183
########## clogP: 2.239
########## nonHatoms: 26
########## Vina_LE: -0.335
########## Vina_LipE: -10.96
########## Close_contacts: 1
########## Hydrophob_contacts: 19
########## HBonds: 2
########## Salt_Bridges: 0
########## Pi-Pi_Parallel: 0
########## Pi-Pi_Perpendicular: 0
########## Pi-Cation: 0
########## Halogen_Bonds: 1
@<TRIPOS>MOLECULE
lig_63.pdbqt
 26 28 0 0 0
SMALL
GASTEIGER

@<TRIPOS>ATOM
      1  C        -27.3630   -7.4980  -19.7430 C.ar    1  UNL1       -0.1210
      2  C        -26.0950   -7.3840  -20.3260 C.ar    1  UNL1       -0.3280
      3  S        -25.8790   -5.9080  -21.2920 S.2     1  UNL1        0.2480
      4  C        -27.5510   -5.4570  -20.9390 C.ar    1  UNL1       -0.0670
      5  C        -28.2040   -4.3080  -21.4120 C.2     1  UNL1        0.0330
      6  C        -29.5480   -4.0960  -21.0530 C.2     1  UNL1       -0.1500
      7 CL        -30.3930   -2.6750  -21.6300 Cl      1  UNL1       -0.1180
      8  C        -30.2170   -5.0280  -20.2360 C.2     1  UNL1       -0.0270
      9  C        -29.5430   -6.1730  -19.7710 C.2     1  UNL1        0.1770
     10  C        -28.1990   -6.3730  -20.1300 C.ar    1  UNL1       -0.0270
     11  C        -24.9520   -8.3240  -20.2420 C.2     1  UNL1        0.9220
     12  O        -24.1630   -8.1390  -19.3320 O.co2   1  UNL1       -0.8090
     13  O        -24.8110   -9.2140  -21.0610 O.co2   1  UNL1       -0.8090
     14  C        -27.7630   -8.6520  -18.8540 C.3     1  UNL1        0.1020
     15  C        -27.4470  -10.0140  -19.5120 C.3     1  UNL1       -0.0120
     16  C        -28.6240  -10.5390  -20.3550 C.3     1  UNL1        0.2760
     17  O        -29.7130   -9.6010  -20.2620 O.2     1  UNL1       -0.3520
     18  C        -30.9210  -10.0170  -19.7660 C.2     1  UNL1        0.1360
     19  C        -32.0180  -10.1020  -20.6290 C.2     1  UNL1       -0.0060
     20  C        -33.2700  -10.5280  -20.1500 C.2     1  UNL1       -0.0400
     21  C        -34.4540  -10.6010  -21.1040 C.3     1  UNL1        0.0910
     22  C        -33.4070  -10.8780  -18.7880 C.2     1  UNL1       -0.0280
     23  C        -32.2990  -10.7990  -17.9160 C.2     1  UNL1       -0.0400
     24 CL        -34.9660  -11.4150  -18.1760 Cl      1  UNL1       -0.1390
     25  C        -31.0560  -10.3660  -18.4160 C.2     1  UNL1       -0.0060
     26  C        -32.4270  -11.1730  -16.4460 C.3     1  UNL1        0.0910
@<TRIPOS>BOND
     1     7     6    1
     2     5     6    1
     3     5     4    2
     4     3     4   ar
     5     3     2   ar
     6    21    20    1
     7    13    11   ar
     8     6     8    2
     9     4    10   ar
    10    19    20    1
    11    19    18    2
    12    16    17    1
    13    16    15    1
    14     2    11    1
    15     2     1   ar
    16    17    18    1
    17    11    12   ar
    18     8     9    1
    19    20    22    2
    20    10     9    2
    21    10     1   ar
    22    18    25    1
    23     1    14    1
    24    15    14    1
    25    22    24    1
    26    22    23    1
    27    25    23    2
    28    23    26    1
########## Name: lig_65
########## Vina_BE: -8.838
########## MW: 391.183
########## clogP: 2.165
########## nonHatoms: 26
########## Vina_LE: -0.34
########## Vina_LipE: -11.003
########## Close_contacts: 0
########## Hydrophob_contacts: 26
########## HBonds: 2
########## Salt_Bridges: 0
########## Pi-Pi_Parallel: 0
########## Pi-Pi_Perpendicular: 0
########## Pi-Cation: 0
########## Halogen_Bonds: 0
@<TRIPOS>MOLECULE
lig_65.pdbqt
 26 28 0 0 0
SMALL
GASTEIGER

@<TRIPOS>ATOM
      1  C        -27.2600   -7.2720  -19.9340 C.ar    1  UNL1       -0.1210
      2  C        -26.1240   -6.8400  -20.6280 C.ar    1  UNL1       -0.3280
      3  S        -26.2810   -5.2050  -21.3100 S.2     1  UNL1        0.2480
      4  C        -27.9340   -5.1210  -20.6860 C.ar    1  UNL1       -0.0670
      5  C        -28.8290   -4.0490  -20.8500 C.2     1  UNL1       -0.0920
      6 CL        -28.3620   -2.6010  -21.7200 Cl      1  UNL1       -0.1180
      7  C        -30.1210   -4.1490  -20.3050 C.2     1  UNL1       -0.0250
      8  C        -30.5060   -5.3130  -19.6120 C.2     1  UNL1       -0.0270
      9  C        -29.5970   -6.3780  -19.4590 C.2     1  UNL1        0.1770
     10  C        -28.3050   -6.2640  -20.0000 C.ar    1  UNL1       -0.0270
     11  C        -24.8500   -7.5660  -20.8600 C.2     1  UNL1        0.9220
     12  O        -24.6180   -7.9070  -22.0060 O.co2   1  UNL1       -0.8090
     13  O        -24.0990   -7.8210  -19.9340 O.co2   1  UNL1       -0.8090
     14  C        -27.3460   -8.6110  -19.2430 C.3     1  UNL1        0.1020
     15  C        -27.2660   -9.7780  -20.2520 C.3     1  UNL1       -0.0120
     16  C        -28.5610  -10.6100  -20.2860 C.3     1  UNL1        0.2760
     17  O        -29.6840   -9.7100  -20.3670 O.2     1  UNL1       -0.3520
     18  C        -30.8990  -10.0680  -19.8390 C.2     1  UNL1        0.1360
     19  C        -32.0070  -10.1440  -20.6910 C.2     1  UNL1       -0.0060
     20  C        -33.2670  -10.5170  -20.1890 C.2     1  UNL1       -0.0400
     21  C        -34.4620  -10.5780  -21.1320 C.3     1  UNL1        0.0910
     22  C        -33.4050  -10.8230  -18.8180 C.2     1  UNL1       -0.0280
     23  C        -32.2870  -10.7560  -17.9570 C.2     1  UNL1       -0.0400
     24 CL        -34.9740  -11.2940  -18.1780 Cl      1  UNL1       -0.1390
     25  C        -31.0350  -10.3780  -18.4780 C.2     1  UNL1       -0.0060
     26  C        -32.4140  -11.0870  -16.4760 C.3     1  UNL1        0.0910
@<TRIPOS>BOND
     1    12    11   ar
     2     6     5    1
     3     3     4   ar
     4     3     2   ar
     5    21    20    1
     6    11     2    1
     7    11    13   ar
     8     5     4    2
     9     5     7    1
    10    19    20    1
    11    19    18    2
    12     4    10   ar
    13     2     1   ar
    14    17    16    1
    15    17    18    1
    16     7     8    2
    17    16    15    1
    18    15    14    1
    19    20    22    2
    20    10     1   ar
    21    10     9    2
    22     1    14    1
    23    18    25    1
    24     8     9    1
    25    22    24    1
    26    22    23    1
    27    25    23    2
    28    23    26    1
########## Name: lig_67
########## Vina_BE: -8.697
########## MW: 339.665
########## clogP: 1.007
########## nonHatoms: 25
########## Vina_LE: -0.348
########## Vina_LipE: -9.704
########## Close_contacts: 0
########## Hydrophob_contacts: 25
########## HBonds: 2
########## Salt_Bridges: 0
########## Pi-Pi_Parallel: 0
########## Pi-Pi_Perpendicular: 0
########## Pi-Cation: 0
########## Halogen_Bonds: 0
@<TRIPOS>MOLECULE
lig_67.pdbqt
 25 27 0 0 0
SMALL
GASTEIGER

@<TRIPOS>ATOM
      1  C        -27.6910   -8.8360  -19.0340 C.3     1  UNL1        0.0980
      2  C        -27.6050   -7.5050  -19.7340 C.ar    1  UNL1       -0.2120
      3  C        -26.4190   -6.9830  -20.3950 C.ar    1  UNL1        0.0090
      4  O        -26.6620   -5.7470  -20.9620 O.2     1  UNL1        0.0590
      5  C        -27.9770   -5.4580  -20.6940 C.ar    1  UNL1       -0.1550
      6  C        -28.6880   -4.3110  -21.0740 C.2     1  UNL1        0.0130
      7  C        -28.5790   -6.4680  -19.9710 C.ar    1  UNL1       -0.0580
      8  C        -30.0430   -4.2140  -20.6990 C.2     1  UNL1       -0.0330
      9  C        -30.6580   -5.2490  -19.9600 C.2     1  UNL1       -0.0480
     10  C        -29.9240   -6.3940  -19.5890 C.2     1  UNL1        0.0180
     11  C        -25.0650   -7.5880  -20.5320 C.2     1  UNL1        0.9360
     12  O        -24.7780   -8.2410  -21.5240 O.co2   1  UNL1       -0.7970
     13  O        -24.2610   -7.3950  -19.6330 O.co2   1  UNL1       -0.7970
     14  C        -27.3170  -10.0130  -19.9700 C.3     1  UNL1       -0.0200
     15  C        -28.5310  -10.8850  -20.3420 C.3     1  UNL1        0.2790
     16  O        -29.6380  -10.0230  -20.6750 O.2     1  UNL1       -0.3530
     17  C        -30.8780  -10.2470  -20.1310 C.2     1  UNL1        0.1350
     18  C        -32.0270  -10.2850  -20.9370 C.2     1  UNL1       -0.0070
     19  C        -33.2880  -10.5310  -20.3670 C.2     1  UNL1       -0.0400
     20  C        -34.5170  -10.5590  -21.2650 C.3     1  UNL1        0.0930
     21  C        -33.3900  -10.7530  -18.9760 C.2     1  UNL1       -0.0270
     22  C        -32.2330  -10.7330  -18.1650 C.2     1  UNL1       -0.0400
     23 CL        -34.9610  -11.0640  -18.2500 Cl      1  UNL1       -0.1370
     24  C        -30.9810  -10.4830  -18.7550 C.2     1  UNL1       -0.0070
     25  C        -32.3210  -10.9810  -16.6660 C.3     1  UNL1        0.0930
@<TRIPOS>BOND
     1    12    11   ar
     2    20    19    1
     3     6     8    1
     4     6     5    2
     5     4     5   ar
     6     4     3   ar
     7    18    19    1
     8    18    17    2
     9     8     9    2
    10     5     7   ar
    11    16    15    1
    12    16    17    1
    13    11     3    1
    14    11    13   ar
    15     3     2   ar
    16    19    21    2
    17    15    14    1
    18    17    24    1
    19     7     2   ar
    20     7    10    2
    21    14     1    1
    22     9    10    1
    23     2     1    1
    24    21    23    1
    25    21    22    1
    26    24    22    2
    27    22    25    1
########## Name: ligand
########## Vina_BE: -12.089
########## MW: 373.704
########## clogP: 1.841
########## nonHatoms: 28
########## Vina_LE: -0.432
########## Vina_LipE: -13.93
########## Close_contacts: 0
########## Hydrophob_contacts: 26
########## HBonds: 1
########## Salt_Bridges: 0
########## Pi-Pi_Parallel: 0
########## Pi-Pi_Perpendicular: 0
########## Pi-Cation: 0
########## Halogen_Bonds: 0
@<TRIPOS>MOLECULE
ligand.pdbqt
 28 32 0 0 0
SMALL
GASTEIGER

@<TRIPOS>ATOM
      1  C        -32.2190  -11.2460  -16.8320 C.2     1  UNL1        0.0110
      2  C        -33.5520  -11.2480  -17.2920 C.2     1  UNL1        0.0120
      3  C        -33.8610  -10.7960  -18.5880 C.2     1  UNL1        0.0160
      4  C        -26.6210   -7.3160  -20.3240 C.2     1  UNL1        0.0190
      5  C        -25.2940   -7.6020  -19.9380 C.2     1  UNL1       -0.1150
      6  C        -25.0320   -8.8130  -19.2720 C.2     1  UNL1        0.0410
      7  C        -26.0700   -9.7210  -19.0160 C.2     1  UNL1       -0.0250
      8  C        -29.3020  -10.7160  -20.1990 C.3     1  UNL1        0.2580
      9  C        -30.1400   -8.3650  -19.6170 C.3     1  UNL1        0.3010
     10  C        -27.6900   -8.2030  -20.0640 C.2     1  UNL1        0.0750
     11  C        -27.3850   -9.4330  -19.4140 C.2     1  UNL1        0.0310
     12  C        -30.5440   -9.8090  -20.0100 C.3     1  UNL1       -0.0410
     13  C        -32.9170   -9.8210  -20.8180 C.3     1  UNL1        0.0590
     14  N        -29.0090   -7.8510  -20.4150 N.pl3   1  UNL1       -0.6510
     15  O        -28.3150  -10.4320  -19.1930 O.2     1  UNL1       -0.3510
     16  C        -32.8150  -10.3480  -19.4080 C.2     1  UNL1       -0.0810
     17  C        -31.5000  -10.3500  -18.9620 C.2     1  UNL1       -0.0680
     18  C        -31.1800  -10.7920  -17.6680 C.2     1  UNL1        0.0660
     19 CL        -34.8330  -11.8140  -16.2420 Cl      1  UNL1       -0.1220
     20  C        -31.4400   -9.8280  -21.2890 C.3     1  UNL1        0.0350
     21  C        -24.1750   -6.6240  -20.2290 C.2     1  UNL1        0.9090
     22  O        -23.5440   -6.1780  -19.2830 O.co2   1  UNL1       -0.8300
     23  O        -23.9540   -6.3330  -21.3940 O.co2   1  UNL1       -0.8300
     24  C        -29.3330   -6.7330  -21.3270 C.3     1  UNL1        0.3130
     25  C        -30.1880   -5.6340  -20.6630 C.3     1  UNL1       -0.0270
     26  C        -29.7040   -5.0680  -19.2860 C.3     1  UNL1        0.0090
     27  C        -30.4270   -3.7490  -19.7060 C.3     1  UNL1       -0.0210
     28  C        -30.0580   -4.1570  -21.1680 C.3     1  UNL1        0.0090
@<TRIPOS>BOND
     1    23    21   ar
     2    24    25    1
     3    24    14    1
     4    20    13    1
     5    20    12    1
     6    28    25    1
     7    28    27    1
     8    13    16    1
     9    25    26    1
    10    14    10    1
    11    14     9    1
    12     4    10    2
    13     4     5    1
    14    21     5    1
    15    21    22   ar
    16     8    12    1
    17     8    15    1
    18    10    11    1
    19    12     9    1
    20    12    17    1
    21     5     6    2
    22    27    26    1
    23    11    15    1
    24    11     7    2
    25    16    17    2
    26    16     3    1
    27     6     7    1
    28    17    18    1
    29     3     2    2
    30    18     1    2
    31     2     1    1
    32     2    19    1
